
data_image0
_symmetry_space_group_name_H-M    "P 1"
_symmetry_int_tables_number       1

loop_
 _symmetry_equiv_pos_as_xyz
 'x, y, z'

_cell_length_a	9.642708
_cell_length_b	14.142914
_cell_length_c	18.355283
_cell_angle_alpha	90.0
_cell_angle_beta	36.222747
_cell_angle_gamma	90.0

loop_
 _atom_site_type_symbol
 _atom_site_fract_x
 _atom_site_fract_y
 _atom_site_fract_z
 O 0.0000 0.0924 0.0000
 O 0.0000 0.4137 0.0000
 O 0.0000 0.5863 0.0000
 O 0.0000 0.9076 0.0000
 O 0.0405 0.3375 0.8566
 O 0.0405 0.6625 0.8566
 O 0.0415 0.1531 0.1121
 O 0.0415 0.8469 0.1121
 O 0.0695 0.2422 0.2196
 O 0.0695 0.7578 0.2196
 O 0.0739 0.0000 0.5297
 O 0.1499 0.0951 0.2750
 O 0.1499 0.9049 0.2750
 O 0.2041 0.2174 0.5532
 O 0.2041 0.7826 0.5532
 O 0.2374 0.2739 0.2741
 O 0.2374 0.7261 0.2741
 O 0.2554 0.5000 0.7972
 O 0.2764 0.0000 0.9692
 O 0.3351 0.2187 0.3610
 O 0.3351 0.7813 0.3610
 O 0.3457 0.2391 0.6651
 O 0.3457 0.7609 0.6651
 O 0.3620 0.0000 0.2952
 O 0.3895 0.1730 0.8701
 O 0.3895 0.8270 0.8701
 O 0.3991 0.3447 0.8038
 O 0.3991 0.6553 0.8038
 O 0.4763 0.0839 0.3764
 O 0.4763 0.9161 0.3764
 O 0.5237 0.0839 0.6236
 O 0.5237 0.9161 0.6236
 O 0.6009 0.3447 0.1962
 O 0.6009 0.6553 0.1962
 O 0.6105 0.1730 0.1299
 O 0.6105 0.8270 0.1299
 O 0.6380 0.0000 0.7048
 O 0.6543 0.2391 0.3349
 O 0.6543 0.7609 0.3349
 O 0.6649 0.2187 0.6390
 O 0.6649 0.7813 0.6390
 O 0.7236 0.0000 0.0308
 O 0.7446 0.5000 0.2028
 O 0.7626 0.2739 0.7259
 O 0.7626 0.7261 0.7259
 O 0.7959 0.2174 0.4468
 O 0.7959 0.7826 0.4468
 O 0.8501 0.0951 0.7250
 O 0.8501 0.9049 0.7250
 O 0.9261 0.0000 0.4703
 O 0.9305 0.2422 0.7804
 O 0.9305 0.7578 0.7804
 O 0.9585 0.1531 0.8879
 O 0.9585 0.8469 0.8879
 O 0.9595 0.3375 0.1434
 O 0.9595 0.6625 0.1434
 Si 0.0602 0.2044 0.3060
 Si 0.0602 0.7956 0.3060
 Si 0.0667 0.2414 0.7988
 Si 0.0667 0.7586 0.7988
 Si 0.1498 0.0000 0.3244
 Si 0.1777 0.3966 0.8609
 Si 0.1777 0.6034 0.8609
 Si 0.1828 0.1058 0.9859
 Si 0.1828 0.8942 0.9859
 Si 0.3427 0.0000 0.3929
 Si 0.4138 0.1935 0.4096
 Si 0.4138 0.8065 0.4096
 Si 0.4549 0.2527 0.2356
 Si 0.4549 0.7473 0.2356
 Si 0.5451 0.2527 0.7644
 Si 0.5451 0.7473 0.7644
 Si 0.5862 0.1935 0.5904
 Si 0.5862 0.8065 0.5904
 Si 0.6573 0.0000 0.6071
 Si 0.8172 0.1058 0.0141
 Si 0.8172 0.8942 0.0141
 Si 0.8223 0.3966 0.1391
 Si 0.8223 0.6034 0.1391
 Si 0.8502 0.0000 0.6756
 Si 0.9333 0.2414 0.2012
 Si 0.9333 0.7586 0.2012
 Si 0.9398 0.2044 0.6940
 Si 0.9398 0.7956 0.6940
