
data_image0
_symmetry_space_group_name_H-M    "P 1"
_symmetry_int_tables_number       1

loop_
 _symmetry_equiv_pos_as_xyz
 'x, y, z'

_cell_length_a	28.486709
_cell_length_b	23.104641
_cell_length_c	12.256198
_cell_angle_alpha	90.0
_cell_angle_beta	159.460747
_cell_angle_gamma	90.0

loop_
 _atom_site_type_symbol
 _atom_site_fract_x
 _atom_site_fract_y
 _atom_site_fract_z
 O 0.0000 0.1679 0.0000
 O 0.0000 0.2217 0.5000
 O 0.0000 0.3413 0.0000
 O 0.0000 0.6587 0.0000
 O 0.0000 0.7783 0.5000
 O 0.0000 0.8321 0.0000
 O 0.0259 0.0000 0.6653
 O 0.0259 1.0000 0.6653
 O 0.0597 0.1227 0.8700
 O 0.0597 0.8773 0.8700
 O 0.1419 0.2544 0.3893
 O 0.1419 0.7456 0.3893
 O 0.1495 0.1550 0.7022
 O 0.1495 0.8450 0.7022
 O 0.1554 0.0564 0.6160
 O 0.1554 0.9436 0.6160
 O 0.1645 0.1517 0.5222
 O 0.1645 0.8483 0.5222
 O 0.1849 0.3595 0.5448
 O 0.1849 0.6405 0.5448
 O 0.2066 0.1637 0.0306
 O 0.2066 0.8363 0.0306
 O 0.2155 0.0000 0.9299
 O 0.2155 1.0000 0.9299
 O 0.2433 0.3305 0.4697
 O 0.2433 0.6695 0.4697
 O 0.2464 0.0569 0.1813
 O 0.2464 0.9431 0.1813
 O 0.2500 0.2500 0.0000
 O 0.2500 0.7500 0.0000
 O 0.2536 0.4431 0.8187
 O 0.2536 0.5569 0.8187
 O 0.2567 0.1695 0.5303
 O 0.2567 0.8305 0.5303
 O 0.2845 0.5000 0.0701
 O 0.2934 0.3363 0.9694
 O 0.2934 0.6637 0.9694
 O 0.3151 0.1405 0.4552
 O 0.3151 0.8595 0.4552
 O 0.3355 0.3483 0.4778
 O 0.3355 0.6517 0.4778
 O 0.3446 0.4436 0.3840
 O 0.3446 0.5564 0.3840
 O 0.3505 0.3450 0.2978
 O 0.3505 0.6550 0.2978
 O 0.3581 0.2456 0.6107
 O 0.3581 0.7544 0.6107
 O 0.4403 0.3773 0.1300
 O 0.4403 0.6227 0.1300
 O 0.4741 0.5000 0.3347
 O 0.5000 0.1587 0.0000
 O 0.5000 0.2783 0.5000
 O 0.5000 0.3321 0.0000
 O 0.5000 0.6679 0.0000
 O 0.5000 0.7217 0.5000
 O 0.5000 0.8413 0.0000
 O 0.5259 0.5000 0.6653
 O 0.5597 0.3773 0.8700
 O 0.5597 0.6227 0.8700
 O 0.6419 0.2456 0.3893
 O 0.6419 0.7544 0.3893
 O 0.6495 0.3450 0.7022
 O 0.6495 0.6550 0.7022
 O 0.6554 0.4436 0.6160
 O 0.6554 0.5564 0.6160
 O 0.6645 0.3483 0.5222
 O 0.6645 0.6517 0.5222
 O 0.6849 0.1405 0.5448
 O 0.6849 0.8595 0.5448
 O 0.7066 0.3363 0.0306
 O 0.7066 0.6637 0.0306
 O 0.7155 0.5000 0.9299
 O 0.7433 0.1695 0.4697
 O 0.7433 0.8305 0.4697
 O 0.7464 0.4431 0.1813
 O 0.7464 0.5569 0.1813
 O 0.7500 0.2500 0.0000
 O 0.7500 0.7500 0.0000
 O 0.7536 0.0569 0.8187
 O 0.7536 0.9431 0.8187
 O 0.7567 0.3305 0.5303
 O 0.7567 0.6695 0.5303
 O 0.7845 0.0000 0.0701
 O 0.7845 1.0000 0.0701
 O 0.7934 0.1637 0.9694
 O 0.7934 0.8363 0.9694
 O 0.8151 0.3595 0.4552
 O 0.8151 0.6405 0.4552
 O 0.8355 0.1517 0.4778
 O 0.8355 0.8483 0.4778
 O 0.8446 0.0564 0.3840
 O 0.8446 0.9436 0.3840
 O 0.8505 0.1550 0.2978
 O 0.8505 0.8450 0.2978
 O 0.8581 0.2544 0.6107
 O 0.8581 0.7456 0.6107
 O 0.9403 0.1227 0.1300
 O 0.9403 0.8773 0.1300
 O 0.9741 0.0000 0.3347
 O 0.9741 1.0000 0.3347
 O 1.0000 0.1679 0.0000
 O 1.0000 0.2217 0.5000
 O 1.0000 0.3413 0.0000
 O 1.0000 0.6587 0.0000
 O 1.0000 0.7783 0.5000
 O 1.0000 0.8321 0.0000
 Si 0.1006 0.1220 0.4887
 Si 0.1006 0.8780 0.4887
 Si 0.1259 0.0000 0.6249
 Si 0.1259 1.0000 0.6249
 Si 0.1396 0.1865 0.3570
 Si 0.1396 0.8135 0.3570
 Si 0.1441 0.3206 0.3539
 Si 0.1441 0.6794 0.3539
 Si 0.1503 0.1981 0.8053
 Si 0.1503 0.8019 0.8053
 Si 0.1836 0.0000 0.9899
 Si 0.1836 1.0000 0.9899
 Si 0.2045 0.1210 0.1282
 Si 0.2045 0.8790 0.1282
 Si 0.2955 0.3790 0.8718
 Si 0.2955 0.6210 0.8718
 Si 0.3164 0.5000 0.0101
 Si 0.3497 0.3019 0.1947
 Si 0.3497 0.6981 0.1947
 Si 0.3559 0.1794 0.6461
 Si 0.3559 0.8206 0.6461
 Si 0.3604 0.3135 0.6430
 Si 0.3604 0.6865 0.6430
 Si 0.3741 0.5000 0.3751
 Si 0.3994 0.3780 0.5113
 Si 0.3994 0.6220 0.5113
 Si 0.6006 0.3780 0.4887
 Si 0.6006 0.6220 0.4887
 Si 0.6259 0.5000 0.6249
 Si 0.6396 0.3135 0.3570
 Si 0.6396 0.6865 0.3570
 Si 0.6441 0.1794 0.3539
 Si 0.6441 0.8206 0.3539
 Si 0.6503 0.3019 0.8053
 Si 0.6503 0.6981 0.8053
 Si 0.6836 0.5000 0.9899
 Si 0.7045 0.3790 0.1282
 Si 0.7045 0.6210 0.1282
 Si 0.7955 0.1210 0.8718
 Si 0.7955 0.8790 0.8718
 Si 0.8164 0.0000 0.0101
 Si 0.8164 1.0000 0.0101
 Si 0.8497 0.1981 0.1947
 Si 0.8497 0.8019 0.1947
 Si 0.8559 0.3206 0.6461
 Si 0.8559 0.6794 0.6461
 Si 0.8604 0.1865 0.6430
 Si 0.8604 0.8135 0.6430
 Si 0.8741 0.0000 0.3751
 Si 0.8741 1.0000 0.3751
 Si 0.8994 0.1220 0.5113
 Si 0.8994 0.8780 0.5113
