
data_image0
_symmetry_space_group_name_H-M    "P 1"
_symmetry_int_tables_number       1

loop_
 _symmetry_equiv_pos_as_xyz
 'x, y, z'

_cell_length_a	31.946677
_cell_length_b	18.516381
_cell_length_c	12.877787
_cell_angle_alpha	90.0
_cell_angle_beta	27.025748
_cell_angle_gamma	90.0

loop_
 _atom_site_type_symbol
 _atom_site_fract_x
 _atom_site_fract_y
 _atom_site_fract_z
 O 0.0000 0.0505 0.2500
 O 0.0000 0.1747 0.7500
 O 0.0000 0.3700 0.7500
 O 0.0000 0.6300 0.2500
 O 0.0000 0.8253 0.2500
 O 0.0000 0.9495 0.7500
 O 0.0438 0.0930 0.4095
 O 0.0438 0.9070 0.9095
 O 0.0522 0.1595 0.0146
 O 0.0522 0.8405 0.5146
 O 0.0648 0.2007 0.7933
 O 0.0648 0.7993 0.2933
 O 0.0897 0.2265 0.2630
 O 0.0897 0.7735 0.7630
 O 0.0997 0.0275 0.8652
 O 0.0997 0.9725 0.3652
 O 0.1084 0.3323 0.3585
 O 0.1084 0.6677 0.8585
 O 0.1305 0.2721 0.4913
 O 0.1305 0.7279 0.9913
 O 0.1665 0.1348 0.4310
 O 0.1665 0.8652 0.9310
 O 0.1694 0.4086 0.3835
 O 0.1694 0.5914 0.8835
 O 0.1740 0.0898 0.8645
 O 0.1740 0.9102 0.3645
 O 0.1776 0.3396 0.0168
 O 0.1776 0.6604 0.5168
 O 0.1889 0.0242 0.0119
 O 0.1889 0.9758 0.5119
 O 0.1973 0.0914 0.1708
 O 0.1973 0.9086 0.6708
 O 0.2226 0.4712 0.8438
 O 0.2226 0.5288 0.3438
 O 0.2500 0.2500 0.0000
 O 0.2500 0.2500 1.0000
 O 0.2500 0.7500 0.5000
 O 0.2774 0.0288 0.1562
 O 0.2774 0.9712 0.6562
 O 0.3027 0.4086 0.8292
 O 0.3027 0.5914 0.3292
 O 0.3111 0.4758 0.9881
 O 0.3111 0.5242 0.4881
 O 0.3224 0.1604 0.9832
 O 0.3224 0.8396 0.4832
 O 0.3260 0.4102 0.1355
 O 0.3260 0.5898 0.6355
 O 0.3306 0.0914 0.6165
 O 0.3306 0.9086 0.1165
 O 0.3335 0.3652 0.5690
 O 0.3335 0.6348 0.0690
 O 0.3695 0.2279 0.5087
 O 0.3695 0.7721 0.0087
 O 0.3916 0.1677 0.6415
 O 0.3916 0.8323 0.1415
 O 0.4003 0.4725 0.1348
 O 0.4003 0.5275 0.6348
 O 0.4103 0.2735 0.7370
 O 0.4103 0.7265 0.2370
 O 0.4352 0.2993 0.2067
 O 0.4352 0.7007 0.7067
 O 0.4478 0.3405 0.9854
 O 0.4478 0.6595 0.4854
 O 0.4562 0.4070 0.5905
 O 0.4562 0.5930 0.0905
 O 0.5000 0.1300 0.2500
 O 0.5000 0.3253 0.2500
 O 0.5000 0.4495 0.7500
 O 0.5000 0.5505 0.2500
 O 0.5000 0.6747 0.7500
 O 0.5000 0.8700 0.7500
 O 0.5438 0.4070 0.9095
 O 0.5438 0.5930 0.4095
 O 0.5522 0.3405 0.5146
 O 0.5522 0.6595 0.0146
 O 0.5648 0.2993 0.2933
 O 0.5648 0.7007 0.7933
 O 0.5897 0.2735 0.7630
 O 0.5897 0.7265 0.2630
 O 0.5997 0.4725 0.3652
 O 0.5997 0.5275 0.8652
 O 0.6084 0.1677 0.8585
 O 0.6084 0.8323 0.3585
 O 0.6305 0.2279 0.9913
 O 0.6305 0.7721 0.4913
 O 0.6665 0.3652 0.9310
 O 0.6665 0.6348 0.4310
 O 0.6694 0.0914 0.8835
 O 0.6694 0.9086 0.3835
 O 0.6740 0.4102 0.3645
 O 0.6740 0.5898 0.8645
 O 0.6776 0.1604 0.5168
 O 0.6776 0.8396 0.0168
 O 0.6889 0.4758 0.5119
 O 0.6889 0.5242 0.0119
 O 0.6973 0.4086 0.6708
 O 0.6973 0.5914 0.1708
 O 0.7226 0.0288 0.3438
 O 0.7226 0.9712 0.8438
 O 0.7500 0.2500 0.5000
 O 0.7500 0.7500 0.0000
 O 0.7500 0.7500 1.0000
 O 0.7774 0.4712 0.6562
 O 0.7774 0.5288 0.1562
 O 0.8027 0.0914 0.3292
 O 0.8027 0.9086 0.8292
 O 0.8111 0.0242 0.4881
 O 0.8111 0.9758 0.9881
 O 0.8224 0.3396 0.4832
 O 0.8224 0.6604 0.9832
 O 0.8260 0.0898 0.6355
 O 0.8260 0.9102 0.1355
 O 0.8306 0.4086 0.1165
 O 0.8306 0.5914 0.6165
 O 0.8335 0.1348 0.0690
 O 0.8335 0.8652 0.5690
 O 0.8695 0.2721 0.0087
 O 0.8695 0.7279 0.5087
 O 0.8916 0.3323 0.1415
 O 0.8916 0.6677 0.6415
 O 0.9003 0.0275 0.6348
 O 0.9003 0.9725 0.1348
 O 0.9103 0.2265 0.2370
 O 0.9103 0.7735 0.7370
 O 0.9352 0.2007 0.7067
 O 0.9352 0.7993 0.2067
 O 0.9478 0.1595 0.4854
 O 0.9478 0.8405 0.9854
 O 0.9562 0.0930 0.0905
 O 0.9562 0.9070 0.5905
 Si 0.0052 0.1717 0.4654
 Si 0.0052 0.8283 0.9654
 Si 0.0824 0.0819 0.9972
 Si 0.0824 0.9181 0.4972
 Si 0.0901 0.1955 0.6167
 Si 0.0901 0.8045 0.1167
 Si 0.1028 0.3458 0.4941
 Si 0.1028 0.6542 0.9941
 Si 0.1326 0.0452 0.2388
 Si 0.1326 0.9548 0.7388
 Si 0.1579 0.2869 0.1584
 Si 0.1579 0.7131 0.6584
 Si 0.2413 0.1031 0.1860
 Si 0.2413 0.8969 0.6860
 Si 0.2416 0.0445 0.7906
 Si 0.2416 0.9555 0.2906
 Si 0.2584 0.4555 0.2094
 Si 0.2584 0.5445 0.7094
 Si 0.2587 0.3969 0.8140
 Si 0.2587 0.6031 0.3140
 Si 0.3421 0.2131 0.8416
 Si 0.3421 0.7869 0.3416
 Si 0.3674 0.4548 0.7612
 Si 0.3674 0.5452 0.2612
 Si 0.3972 0.1542 0.5059
 Si 0.3972 0.8458 0.0059
 Si 0.4099 0.3045 0.3833
 Si 0.4099 0.6955 0.8833
 Si 0.4176 0.4181 0.0028
 Si 0.4176 0.5819 0.5028
 Si 0.4948 0.3283 0.5346
 Si 0.4948 0.6717 0.0346
 Si 0.5052 0.3283 0.9654
 Si 0.5052 0.6717 0.4654
 Si 0.5824 0.4181 0.4972
 Si 0.5824 0.5819 0.9972
 Si 0.5901 0.3045 0.1167
 Si 0.5901 0.6955 0.6167
 Si 0.6028 0.1542 0.9941
 Si 0.6028 0.8458 0.4941
 Si 0.6326 0.4548 0.7388
 Si 0.6326 0.5452 0.2388
 Si 0.6579 0.2131 0.6584
 Si 0.6579 0.7869 0.1584
 Si 0.7413 0.3969 0.6860
 Si 0.7413 0.6031 0.1860
 Si 0.7416 0.4555 0.2906
 Si 0.7416 0.5445 0.7906
 Si 0.7584 0.0445 0.7094
 Si 0.7584 0.9555 0.2094
 Si 0.7587 0.1031 0.3140
 Si 0.7587 0.8969 0.8140
 Si 0.8421 0.2869 0.3416
 Si 0.8421 0.7131 0.8416
 Si 0.8674 0.0452 0.2612
 Si 0.8674 0.9548 0.7612
 Si 0.8972 0.3458 0.0059
 Si 0.8972 0.6542 0.5059
 Si 0.9099 0.1955 0.8833
 Si 0.9099 0.8045 0.3833
 Si 0.9176 0.0819 0.5028
 Si 0.9176 0.9181 0.0028
 Si 0.9948 0.1717 0.0346
 Si 0.9948 0.8283 0.5346
