
data_image0
_symmetry_space_group_name_H-M    "P 1"
_symmetry_int_tables_number       1

loop_
 _symmetry_equiv_pos_as_xyz
 'x, y, z'

_cell_length_a	16.437885
_cell_length_b	15.636022
_cell_length_c	20.771709
_cell_angle_alpha	90.0
_cell_angle_beta	90.0
_cell_angle_gamma	90.0

loop_
 _atom_site_type_symbol
 _atom_site_fract_x
 _atom_site_fract_y
 _atom_site_fract_z
 O 0.0000 0.0000 0.1118
 O 0.0000 0.0000 0.8882
 O 0.0000 0.2112 0.5000
 O 0.0000 0.2888 1.0000
 O 0.0000 0.5000 0.3882
 O 0.0000 0.5000 0.6118
 O 0.0000 0.7112 0.0000
 O 0.0000 0.7888 0.5000
 O 0.0000 1.0000 0.1118
 O 0.0000 1.0000 0.8882
 O 0.0203 0.2500 0.2500
 O 0.0203 0.7500 0.7500
 O 0.0263 0.2493 0.1247
 O 0.0263 0.2507 0.3753
 O 0.0263 0.7493 0.6247
 O 0.0263 0.7507 0.8753
 O 0.0287 0.1196 0.8072
 O 0.0287 0.3804 0.6928
 O 0.0287 0.6196 0.3072
 O 0.0287 0.8804 0.1928
 O 0.0946 0.1624 0.0361
 O 0.0946 0.3376 0.4639
 O 0.0946 0.6624 0.5361
 O 0.0946 0.8376 0.9639
 O 0.1144 0.1163 0.9141
 O 0.1144 0.3837 0.5859
 O 0.1144 0.6163 0.4141
 O 0.1144 0.8837 0.0859
 O 0.1174 0.0000 0.0000
 O 0.1174 0.5000 0.5000
 O 0.1270 0.1635 0.4464
 O 0.1270 0.3365 0.0536
 O 0.1270 0.6635 0.9464
 O 0.1270 0.8365 0.5536
 O 0.1319 0.1594 0.1933
 O 0.1319 0.3406 0.3067
 O 0.1319 0.6594 0.6933
 O 0.1319 0.8406 0.8067
 O 0.1432 0.0055 0.8227
 O 0.1432 0.4945 0.6773
 O 0.1432 0.5055 0.3227
 O 0.1432 0.9945 0.1773
 O 0.2358 0.1170 0.0016
 O 0.2358 0.3830 0.4984
 O 0.2358 0.6170 0.5016
 O 0.2358 0.8830 0.9984
 O 0.2455 0.0938 0.3736
 O 0.2455 0.4062 0.1264
 O 0.2455 0.5938 0.8736
 O 0.2455 0.9062 0.6264
 O 0.2500 0.0727 0.2500
 O 0.2500 0.2500 0.0847
 O 0.2500 0.2500 0.4153
 O 0.2500 0.4273 0.2500
 O 0.2500 0.5727 0.7500
 O 0.2500 0.7500 0.5847
 O 0.2500 0.7500 0.9153
 O 0.2500 0.9273 0.7500
 O 0.2545 0.0938 0.1264
 O 0.2545 0.4062 0.3736
 O 0.2545 0.5938 0.6264
 O 0.2545 0.9062 0.8736
 O 0.2642 0.1170 0.4984
 O 0.2642 0.3830 0.0016
 O 0.2642 0.6170 0.9984
 O 0.2642 0.8830 0.5016
 O 0.3568 0.0055 0.6773
 O 0.3568 0.4945 0.8227
 O 0.3568 0.5055 0.1773
 O 0.3568 0.9945 0.3227
 O 0.3681 0.1594 0.3067
 O 0.3681 0.3406 0.1933
 O 0.3681 0.6594 0.8067
 O 0.3681 0.8406 0.6933
 O 0.3730 0.1635 0.0536
 O 0.3730 0.3365 0.4464
 O 0.3730 0.6635 0.5536
 O 0.3730 0.8365 0.9464
 O 0.3826 0.0000 0.5000
 O 0.3826 0.5000 0.0000
 O 0.3856 0.1163 0.5859
 O 0.3856 0.3837 0.9141
 O 0.3856 0.6163 0.0859
 O 0.3856 0.8837 0.4141
 O 0.4054 0.1624 0.4639
 O 0.4054 0.3376 0.0361
 O 0.4054 0.6624 0.9639
 O 0.4054 0.8376 0.5361
 O 0.4713 0.1196 0.6928
 O 0.4713 0.3804 0.8072
 O 0.4713 0.6196 0.1928
 O 0.4713 0.8804 0.3072
 O 0.4737 0.2493 0.3753
 O 0.4737 0.2507 0.1247
 O 0.4737 0.7493 0.8753
 O 0.4737 0.7507 0.6247
 O 0.4797 0.2500 0.2500
 O 0.4797 0.7500 0.7500
 O 0.5000 0.0000 0.3882
 O 0.5000 0.0000 0.6118
 O 0.5000 0.2112 0.0000
 O 0.5000 0.2112 1.0000
 O 0.5000 0.2888 0.5000
 O 0.5000 0.5000 0.1118
 O 0.5000 0.5000 0.8882
 O 0.5000 0.7112 0.5000
 O 0.5000 0.7888 0.0000
 O 0.5000 0.7888 1.0000
 O 0.5000 1.0000 0.3882
 O 0.5000 1.0000 0.6118
 O 0.5203 0.2500 0.7500
 O 0.5203 0.7500 0.2500
 O 0.5263 0.2493 0.6247
 O 0.5263 0.2507 0.8753
 O 0.5263 0.7493 0.1247
 O 0.5263 0.7507 0.3753
 O 0.5287 0.1196 0.3072
 O 0.5287 0.3804 0.1928
 O 0.5287 0.6196 0.8072
 O 0.5287 0.8804 0.6928
 O 0.5946 0.1624 0.5361
 O 0.5946 0.3376 0.9639
 O 0.5946 0.6624 0.0361
 O 0.5946 0.8376 0.4639
 O 0.6144 0.1163 0.4141
 O 0.6144 0.3837 0.0859
 O 0.6144 0.6163 0.9141
 O 0.6144 0.8837 0.5859
 O 0.6174 0.0000 0.5000
 O 0.6174 0.5000 0.0000
 O 0.6270 0.1635 0.9464
 O 0.6270 0.3365 0.5536
 O 0.6270 0.6635 0.4464
 O 0.6270 0.8365 0.0536
 O 0.6319 0.1594 0.6933
 O 0.6319 0.3406 0.8067
 O 0.6319 0.6594 0.1933
 O 0.6319 0.8406 0.3067
 O 0.6432 0.0055 0.3227
 O 0.6432 0.4945 0.1773
 O 0.6432 0.5055 0.8227
 O 0.6432 0.9945 0.6773
 O 0.7358 0.1170 0.5016
 O 0.7358 0.3830 0.9984
 O 0.7358 0.6170 0.0016
 O 0.7358 0.8830 0.4984
 O 0.7455 0.0938 0.8736
 O 0.7455 0.4062 0.6264
 O 0.7455 0.5938 0.3736
 O 0.7455 0.9062 0.1264
 O 0.7500 0.0727 0.7500
 O 0.7500 0.2500 0.5847
 O 0.7500 0.2500 0.9153
 O 0.7500 0.4273 0.7500
 O 0.7500 0.5727 0.2500
 O 0.7500 0.7500 0.0847
 O 0.7500 0.7500 0.4153
 O 0.7500 0.9273 0.2500
 O 0.7545 0.0938 0.6264
 O 0.7545 0.4062 0.8736
 O 0.7545 0.5938 0.1264
 O 0.7545 0.9062 0.3736
 O 0.7642 0.1170 0.9984
 O 0.7642 0.3830 0.5016
 O 0.7642 0.6170 0.4984
 O 0.7642 0.8830 0.0016
 O 0.8568 0.0055 0.1773
 O 0.8568 0.4945 0.3227
 O 0.8568 0.5055 0.6773
 O 0.8568 0.9945 0.8227
 O 0.8681 0.1594 0.8067
 O 0.8681 0.3406 0.6933
 O 0.8681 0.6594 0.3067
 O 0.8681 0.8406 0.1933
 O 0.8730 0.1635 0.5536
 O 0.8730 0.3365 0.9464
 O 0.8730 0.6635 0.0536
 O 0.8730 0.8365 0.4464
 O 0.8826 0.0000 0.0000
 O 0.8826 0.5000 0.5000
 O 0.8856 0.1163 0.0859
 O 0.8856 0.3837 0.4141
 O 0.8856 0.6163 0.5859
 O 0.8856 0.8837 0.9141
 O 0.9054 0.1624 0.9639
 O 0.9054 0.3376 0.5361
 O 0.9054 0.6624 0.4639
 O 0.9054 0.8376 0.0361
 O 0.9713 0.1196 0.1928
 O 0.9713 0.3804 0.3072
 O 0.9713 0.6196 0.6928
 O 0.9713 0.8804 0.8072
 O 0.9737 0.2493 0.8753
 O 0.9737 0.2507 0.6247
 O 0.9737 0.7493 0.3753
 O 0.9737 0.7507 0.1247
 O 0.9797 0.2500 0.7500
 O 0.9797 0.7500 0.2500
 O 1.0000 0.2112 0.5000
 O 1.0000 0.2888 0.0000
 O 1.0000 0.7112 1.0000
 O 1.0000 0.7888 0.5000
 Si 0.0394 0.1935 0.1893
 Si 0.0394 0.3065 0.3107
 Si 0.0394 0.6935 0.6893
 Si 0.0394 0.8065 0.8107
 Si 0.0629 0.2418 0.4465
 Si 0.0629 0.2582 0.0535
 Si 0.0629 0.7418 0.9465
 Si 0.0629 0.7582 0.5535
 Si 0.0728 0.0582 0.8583
 Si 0.0728 0.4418 0.6417
 Si 0.0728 0.5582 0.3583
 Si 0.0728 0.9418 0.1417
 Si 0.1405 0.0984 0.9873
 Si 0.1405 0.4017 0.5127
 Si 0.1405 0.5984 0.4873
 Si 0.1405 0.9016 0.0127
 Si 0.1947 0.0809 0.1872
 Si 0.1947 0.4191 0.3128
 Si 0.1947 0.5809 0.6872
 Si 0.1947 0.9191 0.8128
 Si 0.2226 0.1550 0.4333
 Si 0.2226 0.3450 0.0667
 Si 0.2226 0.6550 0.9333
 Si 0.2226 0.8450 0.5667
 Si 0.2774 0.1550 0.0667
 Si 0.2774 0.3450 0.4333
 Si 0.2774 0.6550 0.5667
 Si 0.2774 0.8450 0.9333
 Si 0.3053 0.0809 0.3128
 Si 0.3053 0.4191 0.1872
 Si 0.3053 0.5809 0.8128
 Si 0.3053 0.9191 0.6872
 Si 0.3595 0.0984 0.5127
 Si 0.3595 0.4017 0.9873
 Si 0.3595 0.5984 0.0127
 Si 0.3595 0.9016 0.4873
 Si 0.4272 0.0582 0.6417
 Si 0.4272 0.4418 0.8583
 Si 0.4272 0.5582 0.1417
 Si 0.4272 0.9418 0.3583
 Si 0.4371 0.2418 0.0535
 Si 0.4371 0.2582 0.4465
 Si 0.4371 0.7418 0.5535
 Si 0.4371 0.7582 0.9465
 Si 0.4606 0.1935 0.3107
 Si 0.4606 0.3065 0.1893
 Si 0.4606 0.6935 0.8107
 Si 0.4606 0.8065 0.6893
 Si 0.5394 0.1935 0.6893
 Si 0.5394 0.3065 0.8107
 Si 0.5394 0.6935 0.1893
 Si 0.5394 0.8065 0.3107
 Si 0.5629 0.2418 0.9465
 Si 0.5629 0.2582 0.5535
 Si 0.5629 0.7418 0.4465
 Si 0.5629 0.7582 0.0535
 Si 0.5728 0.0582 0.3583
 Si 0.5728 0.4418 0.1417
 Si 0.5728 0.5582 0.8583
 Si 0.5728 0.9418 0.6417
 Si 0.6405 0.0984 0.4873
 Si 0.6405 0.4017 0.0127
 Si 0.6405 0.5984 0.9873
 Si 0.6405 0.9016 0.5127
 Si 0.6947 0.0809 0.6872
 Si 0.6947 0.4191 0.8128
 Si 0.6947 0.5809 0.1872
 Si 0.6947 0.9191 0.3128
 Si 0.7226 0.1550 0.9333
 Si 0.7226 0.3450 0.5667
 Si 0.7226 0.6550 0.4333
 Si 0.7226 0.8450 0.0667
 Si 0.7774 0.1550 0.5667
 Si 0.7774 0.3450 0.9333
 Si 0.7774 0.6550 0.0667
 Si 0.7774 0.8450 0.4333
 Si 0.8053 0.0809 0.8128
 Si 0.8053 0.4191 0.6872
 Si 0.8053 0.5809 0.3128
 Si 0.8053 0.9191 0.1872
 Si 0.8595 0.0984 0.0127
 Si 0.8595 0.4017 0.4873
 Si 0.8595 0.5984 0.5127
 Si 0.8595 0.9016 0.9873
 Si 0.9272 0.0582 0.1417
 Si 0.9272 0.4418 0.3583
 Si 0.9272 0.5582 0.6417
 Si 0.9272 0.9418 0.8583
 Si 0.9371 0.2418 0.5535
 Si 0.9371 0.2582 0.9465
 Si 0.9371 0.7418 0.0535
 Si 0.9371 0.7582 0.4465
 Si 0.9606 0.1935 0.8107
 Si 0.9606 0.3065 0.6893
 Si 0.9606 0.6935 0.3107
 Si 0.9606 0.8065 0.1893
