
data_image0
_symmetry_space_group_name_H-M    "P 1"
_symmetry_int_tables_number       1

loop_
 _symmetry_equiv_pos_as_xyz
 'x, y, z'

_cell_length_a	13.434102
_cell_length_b	11.539631
_cell_length_c	17.066181
_cell_angle_alpha	90.0
_cell_angle_beta	90.0
_cell_angle_gamma	90.0

loop_
 _atom_site_type_symbol
 _atom_site_fract_x
 _atom_site_fract_y
 _atom_site_fract_z
 O 0.0000 0.2500 0.0827
 O 0.0000 0.2500 0.2508
 O 0.0000 0.2500 0.8868
 O 0.0000 0.7500 0.2492
 O 0.0000 0.7500 0.4173
 O 0.0000 0.7500 0.6132
 O 0.0053 0.4795 0.0862
 O 0.0053 0.5205 0.4138
 O 0.1053 0.1207 0.9841
 O 0.1053 0.8793 0.5159
 O 0.1163 0.3760 0.3428
 O 0.1163 0.6240 0.1572
 O 0.1273 0.3972 0.1913
 O 0.1273 0.6028 0.3087
 O 0.1538 0.1202 0.1324
 O 0.1538 0.8798 0.3676
 O 0.1609 0.1547 0.8369
 O 0.1609 0.8453 0.6631
 O 0.1729 0.3200 0.9489
 O 0.1729 0.6800 0.5511
 O 0.1956 0.2139 0.2635
 O 0.1956 0.7861 0.2365
 O 0.1963 0.4799 0.0598
 O 0.1963 0.5201 0.4402
 O 0.2448 0.0000 0.2500
 O 0.2448 1.0000 0.2500
 O 0.2552 0.0000 0.7500
 O 0.2552 1.0000 0.7500
 O 0.3037 0.4799 0.9402
 O 0.3037 0.5201 0.5598
 O 0.3044 0.2139 0.7365
 O 0.3044 0.7861 0.7635
 O 0.3271 0.3200 0.0511
 O 0.3271 0.6800 0.4489
 O 0.3391 0.1547 0.1631
 O 0.3391 0.8453 0.3369
 O 0.3462 0.1202 0.8676
 O 0.3462 0.8798 0.6324
 O 0.3727 0.3972 0.8087
 O 0.3727 0.6028 0.6913
 O 0.3837 0.3760 0.6572
 O 0.3837 0.6240 0.8428
 O 0.3947 0.1207 0.0159
 O 0.3947 0.8793 0.4841
 O 0.4947 0.4795 0.9138
 O 0.4947 0.5205 0.5862
 O 0.5000 0.2500 0.1132
 O 0.5000 0.2500 0.7492
 O 0.5000 0.2500 0.9173
 O 0.5000 0.7500 0.3868
 O 0.5000 0.7500 0.5827
 O 0.5000 0.7500 0.7508
 O 0.5053 0.0205 0.9138
 O 0.5053 0.9795 0.5862
 O 0.6053 0.3793 0.0159
 O 0.6053 0.6207 0.4841
 O 0.6163 0.1240 0.6572
 O 0.6163 0.8760 0.8428
 O 0.6273 0.1028 0.8087
 O 0.6273 0.8972 0.6913
 O 0.6538 0.3798 0.8676
 O 0.6538 0.6202 0.6324
 O 0.6609 0.3453 0.1631
 O 0.6609 0.6547 0.3369
 O 0.6729 0.1800 0.0511
 O 0.6729 0.8200 0.4489
 O 0.6956 0.2861 0.7365
 O 0.6956 0.7139 0.7635
 O 0.6963 0.0201 0.9402
 O 0.6963 0.9799 0.5598
 O 0.7448 0.5000 0.7500
 O 0.7552 0.5000 0.2500
 O 0.8037 0.0201 0.0598
 O 0.8037 0.9799 0.4402
 O 0.8044 0.2861 0.2635
 O 0.8044 0.7139 0.2365
 O 0.8271 0.1800 0.9489
 O 0.8271 0.8200 0.5511
 O 0.8391 0.3453 0.8369
 O 0.8391 0.6547 0.6631
 O 0.8462 0.3798 0.1324
 O 0.8462 0.6202 0.3676
 O 0.8727 0.1028 0.1913
 O 0.8727 0.8972 0.3087
 O 0.8837 0.1240 0.3428
 O 0.8837 0.8760 0.1572
 O 0.8947 0.3793 0.9841
 O 0.8947 0.6207 0.5159
 O 0.9947 0.0205 0.0862
 O 0.9947 0.9795 0.4138
 O 1.0000 0.2500 0.0827
 O 1.0000 0.7500 0.4173
 Si 0.0639 0.1308 0.0722
 Si 0.0639 0.8692 0.4278
 Si 0.1076 0.3084 0.2613
 Si 0.1076 0.6916 0.2387
 Si 0.1108 0.2130 0.9131
 Si 0.1108 0.7870 0.5869
 Si 0.1131 0.4940 0.1251
 Si 0.1131 0.5060 0.3749
 Si 0.2342 0.1186 0.2017
 Si 0.2342 0.8814 0.2983
 Si 0.2500 0.3949 0.0000
 Si 0.2500 0.6051 0.5000
 Si 0.2658 0.1186 0.7983
 Si 0.2658 0.8814 0.7017
 Si 0.3869 0.4940 0.8749
 Si 0.3869 0.5060 0.6251
 Si 0.3892 0.2130 0.0869
 Si 0.3892 0.7870 0.4131
 Si 0.3924 0.3084 0.7387
 Si 0.3924 0.6916 0.7613
 Si 0.4361 0.1308 0.9278
 Si 0.4361 0.8692 0.5722
 Si 0.5639 0.3692 0.9278
 Si 0.5639 0.6308 0.5722
 Si 0.6076 0.1916 0.7387
 Si 0.6076 0.8084 0.7613
 Si 0.6108 0.2870 0.0869
 Si 0.6108 0.7130 0.4131
 Si 0.6131 0.0060 0.8749
 Si 0.6131 0.9940 0.6251
 Si 0.7342 0.3814 0.7983
 Si 0.7342 0.6186 0.7017
 Si 0.7500 0.1051 0.0000
 Si 0.7500 0.8949 0.5000
 Si 0.7658 0.3814 0.2017
 Si 0.7658 0.6186 0.2983
 Si 0.8869 0.0060 0.1251
 Si 0.8869 0.9940 0.3749
 Si 0.8892 0.2870 0.9131
 Si 0.8892 0.7130 0.5869
 Si 0.8924 0.1916 0.2613
 Si 0.8924 0.8084 0.2387
 Si 0.9361 0.3692 0.0722
 Si 0.9361 0.6308 0.4278
