
data_image0
_symmetry_space_group_name_H-M    "P 1"
_symmetry_int_tables_number       1

loop_
 _symmetry_equiv_pos_as_xyz
 'x, y, z'

_cell_length_a	11.820956
_cell_length_b	23.041222
_cell_length_c	11.627589
_cell_angle_alpha	90.0
_cell_angle_beta	90.0
_cell_angle_gamma	90.0

loop_
 _atom_site_type_symbol
 _atom_site_fract_x
 _atom_site_fract_y
 _atom_site_fract_z
 O 0.0298 0.6445 0.1866
 O 0.0298 0.6445 0.8134
 O 0.0426 0.1894 0.1998
 O 0.0426 0.1894 0.8002
 O 0.0539 0.9470 0.5000
 O 0.0659 0.0737 0.1926
 O 0.0659 0.0737 0.8074
 O 0.0675 0.1289 0.3881
 O 0.0675 0.1289 0.6119
 O 0.1048 0.3671 0.0000
 O 0.1210 0.8787 0.2622
 O 0.1210 0.8787 0.7378
 O 0.1284 0.2077 0.0000
 O 0.1398 0.6501 0.0000
 O 0.1471 0.2885 0.1609
 O 0.1471 0.2885 0.8391
 O 0.1494 0.0429 0.0000
 O 0.1669 0.0424 0.5000
 O 0.1674 0.3982 0.2082
 O 0.1674 0.3982 0.7918
 O 0.1837 0.9787 0.1782
 O 0.1837 0.9787 0.8218
 O 0.2121 0.5790 0.1634
 O 0.2121 0.5790 0.8366
 O 0.2360 0.6928 0.1797
 O 0.2360 0.6928 0.8203
 O 0.2464 0.9507 0.3874
 O 0.2464 0.9507 0.6126
 O 0.2536 0.4507 0.3874
 O 0.2536 0.4507 0.6126
 O 0.2640 0.1928 0.1797
 O 0.2640 0.1928 0.8203
 O 0.2879 0.0790 0.1634
 O 0.2879 0.0790 0.8366
 O 0.3163 0.4787 0.1782
 O 0.3163 0.4787 0.8218
 O 0.3326 0.8982 0.2082
 O 0.3326 0.8982 0.7918
 O 0.3331 0.5424 0.5000
 O 0.3506 0.5429 0.0000
 O 0.3529 0.7885 0.1609
 O 0.3529 0.7885 0.8391
 O 0.3602 0.1501 0.0000
 O 0.3716 0.7077 0.0000
 O 0.3790 0.3787 0.2622
 O 0.3790 0.3787 0.7378
 O 0.3952 0.8671 0.0000
 O 0.4325 0.6289 0.3881
 O 0.4325 0.6289 0.6119
 O 0.4341 0.5737 0.1926
 O 0.4341 0.5737 0.8074
 O 0.4461 0.4470 0.5000
 O 0.4574 0.6894 0.1998
 O 0.4574 0.6894 0.8002
 O 0.4702 0.1445 0.1866
 O 0.4702 0.1445 0.8134
 O 0.5298 0.8555 0.1866
 O 0.5298 0.8555 0.8134
 O 0.5426 0.3106 0.1998
 O 0.5426 0.3106 0.8002
 O 0.5539 0.5530 0.5000
 O 0.5659 0.4263 0.1926
 O 0.5659 0.4263 0.8074
 O 0.5675 0.3711 0.3881
 O 0.5675 0.3711 0.6119
 O 0.6048 0.1329 0.0000
 O 0.6210 0.6213 0.2622
 O 0.6210 0.6213 0.7378
 O 0.6284 0.2923 0.0000
 O 0.6398 0.8499 0.0000
 O 0.6471 0.2115 0.1609
 O 0.6471 0.2115 0.8391
 O 0.6494 0.4571 0.0000
 O 0.6669 0.4576 0.5000
 O 0.6674 0.1018 0.2082
 O 0.6674 0.1018 0.7918
 O 0.6837 0.5213 0.1782
 O 0.6837 0.5213 0.8218
 O 0.7121 0.9210 0.1634
 O 0.7121 0.9210 0.8366
 O 0.7360 0.8072 0.1797
 O 0.7360 0.8072 0.8203
 O 0.7464 0.5493 0.3874
 O 0.7464 0.5493 0.6126
 O 0.7536 0.0493 0.3874
 O 0.7536 0.0493 0.6126
 O 0.7640 0.3072 0.1797
 O 0.7640 0.3072 0.8203
 O 0.7879 0.4210 0.1634
 O 0.7879 0.4210 0.8366
 O 0.8163 0.0213 0.1782
 O 0.8163 0.0213 0.8218
 O 0.8326 0.6018 0.2082
 O 0.8326 0.6018 0.7918
 O 0.8331 0.9576 0.5000
 O 0.8506 0.9571 0.0000
 O 0.8529 0.7115 0.1609
 O 0.8529 0.7115 0.8391
 O 0.8602 0.3499 0.0000
 O 0.8716 0.7923 0.0000
 O 0.8790 0.1213 0.2622
 O 0.8790 0.1213 0.7378
 O 0.8952 0.6329 0.0000
 O 0.9325 0.8711 0.3881
 O 0.9325 0.8711 0.6119
 O 0.9341 0.9263 0.1926
 O 0.9341 0.9263 0.8074
 O 0.9461 0.0530 0.5000
 O 0.9574 0.8106 0.1998
 O 0.9574 0.8106 0.8002
 O 0.9702 0.3555 0.1866
 O 0.9702 0.3555 0.8134
 Si 0.0142 0.1284 0.2602
 Si 0.0142 0.1284 0.7398
 Si 0.0623 0.0881 0.5000
 Si 0.0975 0.3520 0.1356
 Si 0.0975 0.3520 0.8644
 Si 0.1463 0.2207 0.1345
 Si 0.1463 0.2207 0.8655
 Si 0.1552 0.6408 0.1341
 Si 0.1552 0.6408 0.8659
 Si 0.1732 0.0434 0.1344
 Si 0.1732 0.0434 0.8656
 Si 0.1791 0.9723 0.5000
 Si 0.2205 0.9265 0.2596
 Si 0.2205 0.9265 0.7404
 Si 0.2795 0.4265 0.2596
 Si 0.2795 0.4265 0.7404
 Si 0.3209 0.4723 0.5000
 Si 0.3268 0.5434 0.1344
 Si 0.3268 0.5434 0.8656
 Si 0.3448 0.1408 0.1341
 Si 0.3448 0.1408 0.8659
 Si 0.3537 0.7207 0.1345
 Si 0.3537 0.7207 0.8655
 Si 0.4025 0.8520 0.1356
 Si 0.4025 0.8520 0.8644
 Si 0.4377 0.5881 0.5000
 Si 0.4858 0.6284 0.2602
 Si 0.4858 0.6284 0.7398
 Si 0.5142 0.3716 0.2602
 Si 0.5142 0.3716 0.7398
 Si 0.5623 0.4119 0.5000
 Si 0.5975 0.1480 0.1356
 Si 0.5975 0.1480 0.8644
 Si 0.6463 0.2793 0.1345
 Si 0.6463 0.2793 0.8655
 Si 0.6552 0.8592 0.1341
 Si 0.6552 0.8592 0.8659
 Si 0.6732 0.4566 0.1344
 Si 0.6732 0.4566 0.8656
 Si 0.6791 0.5277 0.5000
 Si 0.7205 0.5735 0.2596
 Si 0.7205 0.5735 0.7404
 Si 0.7795 0.0735 0.2596
 Si 0.7795 0.0735 0.7404
 Si 0.8209 0.0277 0.5000
 Si 0.8268 0.9566 0.1344
 Si 0.8268 0.9566 0.8656
 Si 0.8448 0.3592 0.1341
 Si 0.8448 0.3592 0.8659
 Si 0.8537 0.7793 0.1345
 Si 0.8537 0.7793 0.8655
 Si 0.9025 0.6480 0.1356
 Si 0.9025 0.6480 0.8644
 Si 0.9377 0.9119 0.5000
 Si 0.9858 0.8716 0.2602
 Si 0.9858 0.8716 0.7398
