
data_image0
_symmetry_space_group_name_H-M    "P 1"
_symmetry_int_tables_number       1

loop_
 _symmetry_equiv_pos_as_xyz
 'x, y, z'

_cell_length_a	13.933216
_cell_length_b	22.807503
_cell_length_c	16.947709
_cell_angle_alpha	90.0
_cell_angle_beta	90.0
_cell_angle_gamma	90.0

loop_
 _atom_site_type_symbol
 _atom_site_fract_x
 _atom_site_fract_y
 _atom_site_fract_z
 O 0.0000 0.1567 0.1001
 O 0.0000 0.1597 0.9481
 O 0.0000 0.1723 0.2509
 O 0.0000 0.2403 0.8471
 O 0.0000 0.2597 0.3471
 O 0.0000 0.3277 0.7509
 O 0.0000 0.3403 0.4481
 O 0.0000 0.3433 0.6001
 O 0.0000 0.6567 0.3999
 O 0.0000 0.6597 0.5519
 O 0.0000 0.6723 0.2491
 O 0.0000 0.7403 0.6529
 O 0.0000 0.7597 0.1529
 O 0.0000 0.8277 0.7491
 O 0.0000 0.8403 0.0519
 O 0.0000 0.8433 0.8999
 O 0.0908 0.1427 0.8114
 O 0.0908 0.3573 0.3114
 O 0.0908 0.6427 0.6886
 O 0.0908 0.8573 0.1886
 O 0.0909 0.2488 0.1612
 O 0.0909 0.2512 0.6612
 O 0.0909 0.7488 0.3388
 O 0.0909 0.7512 0.8388
 O 0.0938 0.1634 0.3842
 O 0.0938 0.3366 0.8842
 O 0.0938 0.6634 0.1158
 O 0.0938 0.8366 0.6158
 O 0.0946 0.0766 0.0223
 O 0.0946 0.4234 0.5223
 O 0.0946 0.5766 0.4777
 O 0.0946 0.9234 0.9777
 O 0.1377 0.2008 0.5266
 O 0.1377 0.2992 0.0266
 O 0.1377 0.7008 0.9734
 O 0.1377 0.7992 0.4734
 O 0.2099 0.0814 0.8972
 O 0.2099 0.4186 0.3972
 O 0.2099 0.5814 0.6028
 O 0.2099 0.9186 0.1028
 O 0.2209 0.1058 0.4631
 O 0.2209 0.3942 0.9631
 O 0.2209 0.6058 0.0369
 O 0.2209 0.8942 0.5369
 O 0.2324 0.0000 0.0000
 O 0.2324 0.5000 0.5000
 O 0.2324 1.0000 0.0000
 O 0.2344 0.2087 0.0845
 O 0.2344 0.2913 0.5845
 O 0.2344 0.7087 0.4155
 O 0.2344 0.7913 0.9155
 O 0.2473 0.1894 0.6519
 O 0.2473 0.3106 0.1519
 O 0.2473 0.6894 0.8481
 O 0.2473 0.8106 0.3481
 O 0.2500 0.1006 0.7500
 O 0.2500 0.3994 0.2500
 O 0.2500 0.6006 0.7500
 O 0.2500 0.8994 0.2500
 O 0.2527 0.1894 0.8481
 O 0.2527 0.3106 0.3481
 O 0.2527 0.6894 0.6519
 O 0.2527 0.8106 0.1519
 O 0.2656 0.2087 0.4155
 O 0.2656 0.2913 0.9155
 O 0.2656 0.7087 0.0845
 O 0.2656 0.7913 0.5845
 O 0.2676 0.0000 0.5000
 O 0.2676 0.5000 0.0000
 O 0.2676 1.0000 0.5000
 O 0.2791 0.1058 0.0369
 O 0.2791 0.3942 0.5369
 O 0.2791 0.6058 0.4631
 O 0.2791 0.8942 0.9631
 O 0.2901 0.0814 0.6028
 O 0.2901 0.4186 0.1028
 O 0.2901 0.5814 0.8972
 O 0.2901 0.9186 0.3972
 O 0.3623 0.2008 0.9734
 O 0.3623 0.2992 0.4734
 O 0.3623 0.7008 0.5266
 O 0.3623 0.7992 0.0266
 O 0.4054 0.0766 0.4777
 O 0.4054 0.4234 0.9777
 O 0.4054 0.5766 0.0223
 O 0.4054 0.9234 0.5223
 O 0.4062 0.1634 0.1158
 O 0.4062 0.3366 0.6158
 O 0.4062 0.6634 0.3842
 O 0.4062 0.8366 0.8842
 O 0.4091 0.2488 0.3388
 O 0.4091 0.2512 0.8388
 O 0.4091 0.7488 0.1612
 O 0.4091 0.7512 0.6612
 O 0.4092 0.1427 0.6886
 O 0.4092 0.3573 0.1886
 O 0.4092 0.6427 0.8114
 O 0.4092 0.8573 0.3114
 O 0.5000 0.1567 0.3999
 O 0.5000 0.1597 0.5519
 O 0.5000 0.1723 0.2491
 O 0.5000 0.2403 0.6529
 O 0.5000 0.2597 0.1529
 O 0.5000 0.3277 0.7491
 O 0.5000 0.3403 0.0519
 O 0.5000 0.3433 0.8999
 O 0.5000 0.6567 0.1001
 O 0.5000 0.6597 0.9481
 O 0.5000 0.6723 0.2509
 O 0.5000 0.7403 0.8471
 O 0.5000 0.7597 0.3471
 O 0.5000 0.8277 0.7509
 O 0.5000 0.8403 0.4481
 O 0.5000 0.8433 0.6001
 O 0.5908 0.1427 0.6886
 O 0.5908 0.3573 0.1886
 O 0.5908 0.6427 0.8114
 O 0.5908 0.8573 0.3114
 O 0.5909 0.2488 0.3388
 O 0.5909 0.2512 0.8388
 O 0.5909 0.7488 0.1612
 O 0.5909 0.7512 0.6612
 O 0.5938 0.1634 0.1158
 O 0.5938 0.3366 0.6158
 O 0.5938 0.6634 0.3842
 O 0.5938 0.8366 0.8842
 O 0.5946 0.0766 0.4777
 O 0.5946 0.4234 0.9777
 O 0.5946 0.5766 0.0223
 O 0.5946 0.9234 0.5223
 O 0.6377 0.2008 0.9734
 O 0.6377 0.2992 0.4734
 O 0.6377 0.7008 0.5266
 O 0.6377 0.7992 0.0266
 O 0.7099 0.0814 0.6028
 O 0.7099 0.4186 0.1028
 O 0.7099 0.5814 0.8972
 O 0.7099 0.9186 0.3972
 O 0.7209 0.1058 0.0369
 O 0.7209 0.3942 0.5369
 O 0.7209 0.6058 0.4631
 O 0.7209 0.8942 0.9631
 O 0.7324 0.0000 0.5000
 O 0.7324 0.5000 0.0000
 O 0.7324 1.0000 0.5000
 O 0.7344 0.2087 0.4155
 O 0.7344 0.2913 0.9155
 O 0.7344 0.7087 0.0845
 O 0.7344 0.7913 0.5845
 O 0.7473 0.1894 0.8481
 O 0.7473 0.3106 0.3481
 O 0.7473 0.6894 0.6519
 O 0.7473 0.8106 0.1519
 O 0.7500 0.1006 0.7500
 O 0.7500 0.3994 0.2500
 O 0.7500 0.6006 0.7500
 O 0.7500 0.8994 0.2500
 O 0.7527 0.1894 0.6519
 O 0.7527 0.3106 0.1519
 O 0.7527 0.6894 0.8481
 O 0.7527 0.8106 0.3481
 O 0.7656 0.2087 0.0845
 O 0.7656 0.2913 0.5845
 O 0.7656 0.7087 0.4155
 O 0.7656 0.7913 0.9155
 O 0.7676 0.0000 0.0000
 O 0.7676 0.5000 0.5000
 O 0.7676 1.0000 0.0000
 O 0.7791 0.1058 0.4631
 O 0.7791 0.3942 0.9631
 O 0.7791 0.6058 0.0369
 O 0.7791 0.8942 0.5369
 O 0.7901 0.0814 0.8972
 O 0.7901 0.4186 0.3972
 O 0.7901 0.5814 0.6028
 O 0.7901 0.9186 0.1028
 O 0.8623 0.2008 0.5266
 O 0.8623 0.2992 0.0266
 O 0.8623 0.7008 0.9734
 O 0.8623 0.7992 0.4734
 O 0.9054 0.0766 0.0223
 O 0.9054 0.4234 0.5223
 O 0.9054 0.5766 0.4777
 O 0.9054 0.9234 0.9777
 O 0.9062 0.1634 0.3842
 O 0.9062 0.3366 0.8842
 O 0.9062 0.6634 0.1158
 O 0.9062 0.8366 0.6158
 O 0.9091 0.2488 0.1612
 O 0.9091 0.2512 0.6612
 O 0.9091 0.7488 0.3388
 O 0.9091 0.7512 0.8388
 O 0.9092 0.1427 0.8114
 O 0.9092 0.3573 0.3114
 O 0.9092 0.6427 0.6886
 O 0.9092 0.8573 0.1886
 O 1.0000 0.1567 0.1001
 O 1.0000 0.1723 0.2509
 O 1.0000 0.2403 0.8471
 O 1.0000 0.2597 0.3471
 O 1.0000 0.3277 0.7509
 O 1.0000 0.3433 0.6001
 O 1.0000 0.6567 0.3999
 O 1.0000 0.6723 0.2491
 O 1.0000 0.7403 0.6529
 O 1.0000 0.7597 0.1529
 O 1.0000 0.8277 0.7491
 O 1.0000 0.8433 0.8999
 Si 0.0000 0.1169 0.0231
 Si 0.0000 0.1713 0.8545
 Si 0.0000 0.1902 0.3430
 Si 0.0000 0.2057 0.1670
 Si 0.0000 0.2943 0.6670
 Si 0.0000 0.3098 0.8430
 Si 0.0000 0.3287 0.3545
 Si 0.0000 0.3831 0.5231
 Si 0.0000 0.6169 0.4769
 Si 0.0000 0.6713 0.6455
 Si 0.0000 0.6902 0.1570
 Si 0.0000 0.7057 0.3330
 Si 0.0000 0.7943 0.8330
 Si 0.0000 0.8098 0.6570
 Si 0.0000 0.8287 0.1455
 Si 0.0000 0.8831 0.9769
 Si 0.1778 0.2325 0.6053
 Si 0.1778 0.2675 0.1053
 Si 0.1778 0.7325 0.8947
 Si 0.1778 0.7675 0.3947
 Si 0.1783 0.1701 0.4473
 Si 0.1783 0.3299 0.9473
 Si 0.1783 0.6701 0.0527
 Si 0.1783 0.8299 0.5527
 Si 0.2017 0.1284 0.8279
 Si 0.2017 0.3716 0.3279
 Si 0.2017 0.6284 0.6721
 Si 0.2017 0.8716 0.1721
 Si 0.2023 0.0669 0.9896
 Si 0.2023 0.4331 0.4896
 Si 0.2023 0.5669 0.5104
 Si 0.2023 0.9331 0.0104
 Si 0.2977 0.0669 0.5104
 Si 0.2977 0.4331 0.0104
 Si 0.2977 0.5669 0.9896
 Si 0.2977 0.9331 0.4896
 Si 0.2983 0.1284 0.6721
 Si 0.2983 0.3716 0.1721
 Si 0.2983 0.6284 0.8279
 Si 0.2983 0.8716 0.3279
 Si 0.3217 0.1701 0.0527
 Si 0.3217 0.3299 0.5527
 Si 0.3217 0.6701 0.4473
 Si 0.3217 0.8299 0.9473
 Si 0.3222 0.2325 0.8947
 Si 0.3222 0.2675 0.3947
 Si 0.3222 0.7325 0.6053
 Si 0.3222 0.7675 0.1053
 Si 0.5000 0.1169 0.4769
 Si 0.5000 0.1713 0.6455
 Si 0.5000 0.1902 0.1570
 Si 0.5000 0.2057 0.3330
 Si 0.5000 0.2943 0.8330
 Si 0.5000 0.3098 0.6570
 Si 0.5000 0.3287 0.1455
 Si 0.5000 0.3831 0.9769
 Si 0.5000 0.6169 0.0231
 Si 0.5000 0.6713 0.8545
 Si 0.5000 0.6902 0.3430
 Si 0.5000 0.7057 0.1670
 Si 0.5000 0.7943 0.6670
 Si 0.5000 0.8098 0.8430
 Si 0.5000 0.8287 0.3545
 Si 0.5000 0.8831 0.5231
 Si 0.6778 0.2325 0.8947
 Si 0.6778 0.2675 0.3947
 Si 0.6778 0.7325 0.6053
 Si 0.6778 0.7675 0.1053
 Si 0.6783 0.1701 0.0527
 Si 0.6783 0.3299 0.5527
 Si 0.6783 0.6701 0.4473
 Si 0.6783 0.8299 0.9473
 Si 0.7017 0.1284 0.6721
 Si 0.7017 0.3716 0.1721
 Si 0.7017 0.6284 0.8279
 Si 0.7017 0.8716 0.3279
 Si 0.7023 0.0669 0.5104
 Si 0.7023 0.4331 0.0104
 Si 0.7023 0.5669 0.9896
 Si 0.7023 0.9331 0.4896
 Si 0.7977 0.0669 0.9896
 Si 0.7977 0.4331 0.4896
 Si 0.7977 0.5669 0.5104
 Si 0.7977 0.9331 0.0104
 Si 0.7983 0.1284 0.8279
 Si 0.7983 0.3716 0.3279
 Si 0.7983 0.6284 0.6721
 Si 0.7983 0.8716 0.1721
 Si 0.8217 0.1701 0.4473
 Si 0.8217 0.3299 0.9473
 Si 0.8217 0.6701 0.0527
 Si 0.8217 0.8299 0.5527
 Si 0.8222 0.2325 0.6053
 Si 0.8222 0.2675 0.1053
 Si 0.8222 0.7325 0.8947
 Si 0.8222 0.7675 0.3947
 Si 1.0000 0.1169 0.0231
 Si 1.0000 0.1902 0.3430
 Si 1.0000 0.2057 0.1670
 Si 1.0000 0.2943 0.6670
 Si 1.0000 0.3098 0.8430
 Si 1.0000 0.3831 0.5231
 Si 1.0000 0.6169 0.4769
 Si 1.0000 0.6902 0.1570
 Si 1.0000 0.7057 0.3330
 Si 1.0000 0.7943 0.8330
 Si 1.0000 0.8098 0.6570
 Si 1.0000 0.8831 0.9769
