
data_image0
_symmetry_space_group_name_H-M    "P 1"
_symmetry_int_tables_number       1

loop_
 _symmetry_equiv_pos_as_xyz
 'x, y, z'

_cell_length_a	25.064194
_cell_length_b	16.869058
_cell_length_c	11.86984
_cell_angle_alpha	90.0
_cell_angle_beta	90.0
_cell_angle_gamma	90.0

loop_
 _atom_site_type_symbol
 _atom_site_fract_x
 _atom_site_fract_y
 _atom_site_fract_z
 O 0.0000 0.0706 0.8556
 O 0.0000 0.4294 0.3556
 O 0.0000 0.5706 0.6444
 O 0.0000 0.9294 0.1444
 O 0.0651 0.0000 0.0000
 O 0.0651 0.5000 0.5000
 O 0.0651 1.0000 0.0000
 O 0.0873 0.1398 0.9233
 O 0.0873 0.3602 0.4233
 O 0.0873 0.6398 0.5767
 O 0.0873 0.8602 0.0767
 O 0.0895 0.0095 0.7878
 O 0.0895 0.4905 0.2878
 O 0.0895 0.5095 0.7122
 O 0.0895 0.9905 0.2122
 O 0.1366 0.0814 0.3651
 O 0.1366 0.4186 0.8651
 O 0.1366 0.5814 0.1349
 O 0.1366 0.9186 0.6349
 O 0.1447 0.2242 0.4313
 O 0.1447 0.2758 0.9313
 O 0.1447 0.7242 0.0687
 O 0.1447 0.7758 0.5687
 O 0.1501 0.1785 0.7599
 O 0.1501 0.3215 0.2599
 O 0.1501 0.6785 0.7401
 O 0.1501 0.8215 0.2401
 O 0.1667 0.0885 0.1472
 O 0.1667 0.4115 0.6472
 O 0.1667 0.5885 0.3528
 O 0.1667 0.9115 0.8528
 O 0.1819 0.1209 0.5691
 O 0.1819 0.3791 0.0691
 O 0.1819 0.6209 0.9309
 O 0.1819 0.8791 0.4309
 O 0.1905 0.0319 0.7385
 O 0.1905 0.4681 0.2385
 O 0.1905 0.5319 0.7615
 O 0.1905 0.9681 0.2615
 O 0.1926 0.1400 0.9511
 O 0.1926 0.3600 0.4511
 O 0.1926 0.6400 0.5489
 O 0.1926 0.8600 0.0489
 O 0.2257 0.0000 0.0000
 O 0.2257 0.5000 0.5000
 O 0.2346 0.1290 0.3916
 O 0.2346 0.3710 0.8916
 O 0.2346 0.6290 0.1084
 O 0.2346 0.8710 0.6084
 O 0.2500 0.1559 0.7500
 O 0.2500 0.3441 0.2500
 O 0.2500 0.6559 0.7500
 O 0.2500 0.8441 0.2500
 O 0.2654 0.1290 0.1084
 O 0.2654 0.3710 0.6084
 O 0.2654 0.6290 0.3916
 O 0.2654 0.8710 0.8916
 O 0.2743 0.0000 0.5000
 O 0.2743 0.5000 0.0000
 O 0.3074 0.1400 0.5489
 O 0.3074 0.3600 0.0489
 O 0.3074 0.6400 0.9511
 O 0.3074 0.8600 0.4511
 O 0.3095 0.0319 0.7615
 O 0.3095 0.4681 0.2615
 O 0.3095 0.5319 0.7385
 O 0.3095 0.9681 0.2385
 O 0.3181 0.1209 0.9309
 O 0.3181 0.3791 0.4309
 O 0.3181 0.6209 0.5691
 O 0.3181 0.8791 0.0691
 O 0.3333 0.0885 0.3528
 O 0.3333 0.4115 0.8528
 O 0.3333 0.5885 0.1472
 O 0.3333 0.9115 0.6472
 O 0.3499 0.1785 0.7401
 O 0.3499 0.3215 0.2401
 O 0.3499 0.6785 0.7599
 O 0.3499 0.8215 0.2599
 O 0.3553 0.2242 0.0687
 O 0.3553 0.2758 0.5687
 O 0.3553 0.7242 0.4313
 O 0.3553 0.7758 0.9313
 O 0.3634 0.0814 0.1349
 O 0.3634 0.4186 0.6349
 O 0.3634 0.5814 0.3651
 O 0.3634 0.9186 0.8651
 O 0.4105 0.0095 0.7122
 O 0.4105 0.4905 0.2122
 O 0.4105 0.5095 0.7878
 O 0.4105 0.9905 0.2878
 O 0.4127 0.1398 0.5767
 O 0.4127 0.3602 0.0767
 O 0.4127 0.6398 0.9233
 O 0.4127 0.8602 0.4233
 O 0.4349 0.0000 0.5000
 O 0.4349 0.5000 0.0000
 O 0.4349 1.0000 0.5000
 O 0.5000 0.0706 0.6444
 O 0.5000 0.4294 0.1444
 O 0.5000 0.5706 0.8556
 O 0.5000 0.9294 0.3556
 O 0.5651 0.0000 0.5000
 O 0.5651 0.5000 0.0000
 O 0.5651 1.0000 0.5000
 O 0.5873 0.1398 0.5767
 O 0.5873 0.3602 0.0767
 O 0.5873 0.6398 0.9233
 O 0.5873 0.8602 0.4233
 O 0.5895 0.0095 0.7122
 O 0.5895 0.4905 0.2122
 O 0.5895 0.5095 0.7878
 O 0.5895 0.9905 0.2878
 O 0.6366 0.0814 0.1349
 O 0.6366 0.4186 0.6349
 O 0.6366 0.5814 0.3651
 O 0.6366 0.9186 0.8651
 O 0.6447 0.2242 0.0687
 O 0.6447 0.2758 0.5687
 O 0.6447 0.7242 0.4313
 O 0.6447 0.7758 0.9313
 O 0.6501 0.1785 0.7401
 O 0.6501 0.3215 0.2401
 O 0.6501 0.6785 0.7599
 O 0.6501 0.8215 0.2599
 O 0.6666 0.0885 0.3528
 O 0.6666 0.4115 0.8528
 O 0.6666 0.5885 0.1472
 O 0.6666 0.9115 0.6472
 O 0.6819 0.1209 0.9309
 O 0.6819 0.3791 0.4309
 O 0.6819 0.6209 0.5691
 O 0.6819 0.8791 0.0691
 O 0.6905 0.0319 0.7615
 O 0.6905 0.4681 0.2615
 O 0.6905 0.5319 0.7385
 O 0.6905 0.9681 0.2385
 O 0.6926 0.1400 0.5489
 O 0.6926 0.3600 0.0489
 O 0.6926 0.6400 0.9511
 O 0.6926 0.8600 0.4511
 O 0.7257 0.0000 0.5000
 O 0.7257 0.5000 0.0000
 O 0.7346 0.1290 0.1084
 O 0.7346 0.3710 0.6084
 O 0.7346 0.6290 0.3916
 O 0.7346 0.8710 0.8916
 O 0.7500 0.1559 0.7500
 O 0.7500 0.3441 0.2500
 O 0.7500 0.6559 0.7500
 O 0.7500 0.8441 0.2500
 O 0.7654 0.1290 0.3916
 O 0.7654 0.3710 0.8916
 O 0.7654 0.6290 0.1084
 O 0.7654 0.8710 0.6084
 O 0.7743 0.0000 0.0000
 O 0.7743 0.5000 0.5000
 O 0.8074 0.1400 0.9511
 O 0.8074 0.3600 0.4511
 O 0.8074 0.6400 0.5489
 O 0.8074 0.8600 0.0489
 O 0.8095 0.0319 0.7385
 O 0.8095 0.4681 0.2385
 O 0.8095 0.5319 0.7615
 O 0.8095 0.9681 0.2615
 O 0.8181 0.1209 0.5691
 O 0.8181 0.3791 0.0691
 O 0.8181 0.6209 0.9309
 O 0.8181 0.8791 0.4309
 O 0.8334 0.0885 0.1472
 O 0.8334 0.4115 0.6472
 O 0.8334 0.5885 0.3528
 O 0.8334 0.9115 0.8528
 O 0.8499 0.1785 0.7599
 O 0.8499 0.3215 0.2599
 O 0.8499 0.6785 0.7401
 O 0.8499 0.8215 0.2401
 O 0.8553 0.2242 0.4313
 O 0.8553 0.2758 0.9313
 O 0.8553 0.7242 0.0687
 O 0.8553 0.7758 0.5687
 O 0.8634 0.0814 0.3651
 O 0.8634 0.4186 0.8651
 O 0.8634 0.5814 0.1349
 O 0.8634 0.9186 0.6349
 O 0.9105 0.0095 0.7878
 O 0.9105 0.4905 0.2878
 O 0.9105 0.5095 0.7122
 O 0.9105 0.9905 0.2122
 O 0.9127 0.1398 0.9233
 O 0.9127 0.3602 0.4233
 O 0.9127 0.6398 0.5767
 O 0.9127 0.8602 0.0767
 O 0.9349 0.0000 0.0000
 O 0.9349 0.5000 0.5000
 O 0.9349 1.0000 0.0000
 O 1.0000 0.0706 0.8556
 O 1.0000 0.4294 0.3556
 O 1.0000 0.5706 0.6444
 O 1.0000 0.9294 0.1444
 Si 0.0607 0.0548 0.8915
 Si 0.0607 0.4452 0.3915
 Si 0.0607 0.5548 0.6085
 Si 0.0607 0.9452 0.1085
 Si 0.1426 0.1851 0.8952
 Si 0.1426 0.3149 0.3952
 Si 0.1426 0.6851 0.6048
 Si 0.1426 0.8149 0.1048
 Si 0.1446 0.0333 0.2479
 Si 0.1446 0.4667 0.7479
 Si 0.1446 0.5333 0.2521
 Si 0.1446 0.9667 0.7521
 Si 0.1742 0.1402 0.4388
 Si 0.1742 0.3598 0.9388
 Si 0.1742 0.6402 0.0612
 Si 0.1742 0.8598 0.5612
 Si 0.1945 0.1228 0.7005
 Si 0.1945 0.3772 0.2005
 Si 0.1945 0.6228 0.7995
 Si 0.1945 0.8772 0.2995
 Si 0.2132 0.0864 0.0536
 Si 0.2132 0.4136 0.5536
 Si 0.2132 0.5864 0.4464
 Si 0.2132 0.9136 0.9464
 Si 0.2868 0.0864 0.4464
 Si 0.2868 0.4136 0.9464
 Si 0.2868 0.5864 0.0536
 Si 0.2868 0.9136 0.5536
 Si 0.3055 0.1228 0.7995
 Si 0.3055 0.3772 0.2995
 Si 0.3055 0.6228 0.7005
 Si 0.3055 0.8772 0.2005
 Si 0.3258 0.1402 0.0612
 Si 0.3258 0.3598 0.5612
 Si 0.3258 0.6402 0.4388
 Si 0.3258 0.8598 0.9388
 Si 0.3554 0.0333 0.2521
 Si 0.3554 0.4667 0.7521
 Si 0.3554 0.5333 0.2479
 Si 0.3554 0.9667 0.7479
 Si 0.3574 0.1851 0.6048
 Si 0.3574 0.3149 0.1048
 Si 0.3574 0.6851 0.8952
 Si 0.3574 0.8149 0.3952
 Si 0.4393 0.0548 0.6085
 Si 0.4393 0.4452 0.1085
 Si 0.4393 0.5548 0.8915
 Si 0.4393 0.9452 0.3915
 Si 0.5607 0.0548 0.6085
 Si 0.5607 0.4452 0.1085
 Si 0.5607 0.5548 0.8915
 Si 0.5607 0.9452 0.3915
 Si 0.6426 0.1851 0.6048
 Si 0.6426 0.3149 0.1048
 Si 0.6426 0.6851 0.8952
 Si 0.6426 0.8149 0.3952
 Si 0.6446 0.0333 0.2521
 Si 0.6446 0.4667 0.7521
 Si 0.6446 0.5333 0.2479
 Si 0.6446 0.9667 0.7479
 Si 0.6742 0.1402 0.0612
 Si 0.6742 0.3598 0.5612
 Si 0.6742 0.6402 0.4388
 Si 0.6742 0.8598 0.9388
 Si 0.6945 0.1228 0.7995
 Si 0.6945 0.3772 0.2995
 Si 0.6945 0.6228 0.7005
 Si 0.6945 0.8772 0.2005
 Si 0.7132 0.0864 0.4464
 Si 0.7132 0.4136 0.9464
 Si 0.7132 0.5864 0.0536
 Si 0.7132 0.9136 0.5536
 Si 0.7868 0.0864 0.0536
 Si 0.7868 0.4136 0.5536
 Si 0.7868 0.5864 0.4464
 Si 0.7868 0.9136 0.9464
 Si 0.8055 0.1228 0.7005
 Si 0.8055 0.3772 0.2005
 Si 0.8055 0.6228 0.7995
 Si 0.8055 0.8772 0.2995
 Si 0.8258 0.1402 0.4388
 Si 0.8258 0.3598 0.9388
 Si 0.8258 0.6402 0.0612
 Si 0.8258 0.8598 0.5612
 Si 0.8554 0.0333 0.2479
 Si 0.8554 0.4667 0.7479
 Si 0.8554 0.5333 0.2521
 Si 0.8554 0.9667 0.7521
 Si 0.8574 0.1851 0.8952
 Si 0.8574 0.3149 0.3952
 Si 0.8574 0.6851 0.6048
 Si 0.8574 0.8149 0.1048
 Si 0.9393 0.0548 0.8915
 Si 0.9393 0.4452 0.3915
 Si 0.9393 0.5548 0.6085
 Si 0.9393 0.9452 0.1085
