
data_image0
_symmetry_space_group_name_H-M    "P 1"
_symmetry_int_tables_number       1

loop_
 _symmetry_equiv_pos_as_xyz
 'x, y, z'

_cell_length_a	18.294312
_cell_length_b	25.44413
_cell_length_c	11.667236
_cell_angle_alpha	90.0
_cell_angle_beta	90.0
_cell_angle_gamma	90.0

loop_
 _atom_site_type_symbol
 _atom_site_fract_x
 _atom_site_fract_y
 _atom_site_fract_z
 O 0.0000 0.0891 0.5000
 O 0.0000 0.1504 0.2116
 O 0.0000 0.1504 0.7884
 O 0.0000 0.2537 0.1358
 O 0.0000 0.2537 0.8642
 O 0.0000 0.3735 0.1520
 O 0.0000 0.3735 0.8480
 O 0.0000 0.6265 0.1520
 O 0.0000 0.6265 0.8480
 O 0.0000 0.7463 0.1358
 O 0.0000 0.7463 0.8642
 O 0.0000 0.8496 0.2116
 O 0.0000 0.8496 0.7884
 O 0.0000 0.9109 0.5000
 O 0.0896 0.1539 0.3912
 O 0.0896 0.1539 0.6088
 O 0.0896 0.8461 0.3912
 O 0.0896 0.8461 0.6088
 O 0.1049 0.3831 0.0000
 O 0.1049 0.6169 0.0000
 O 0.1124 0.2376 0.0000
 O 0.1124 0.7624 0.0000
 O 0.1152 0.3099 0.1610
 O 0.1152 0.3099 0.8390
 O 0.1152 0.6901 0.1610
 O 0.1152 0.6901 0.8390
 O 0.1186 0.0990 0.2087
 O 0.1186 0.0990 0.7913
 O 0.1186 0.9010 0.2087
 O 0.1186 0.9010 0.7913
 O 0.1200 0.2059 0.2084
 O 0.1200 0.2059 0.7916
 O 0.1200 0.7941 0.2084
 O 0.1200 0.7941 0.7916
 O 0.1231 0.4072 0.2241
 O 0.1231 0.4072 0.7759
 O 0.1231 0.5928 0.2241
 O 0.1231 0.5928 0.7759
 O 0.1355 0.0000 0.1537
 O 0.1355 0.0000 0.8463
 O 0.1355 1.0000 0.1537
 O 0.1355 1.0000 0.8463
 O 0.1476 0.0743 0.5000
 O 0.1476 0.9257 0.5000
 O 0.1563 0.0755 0.0000
 O 0.1563 0.9245 0.0000
 O 0.1663 0.5000 0.2863
 O 0.1663 0.5000 0.7137
 O 0.2254 0.4165 0.3859
 O 0.2254 0.4165 0.6141
 O 0.2254 0.5835 0.3859
 O 0.2254 0.5835 0.6141
 O 0.2385 0.0000 0.5000
 O 0.2385 1.0000 0.5000
 O 0.2485 0.0632 0.1666
 O 0.2485 0.0632 0.8334
 O 0.2485 0.9368 0.1666
 O 0.2485 0.9368 0.8334
 O 0.2515 0.4368 0.1666
 O 0.2515 0.4368 0.8334
 O 0.2515 0.5632 0.1666
 O 0.2515 0.5632 0.8334
 O 0.2615 0.5000 0.5000
 O 0.2746 0.0835 0.3859
 O 0.2746 0.0835 0.6141
 O 0.2746 0.9165 0.3859
 O 0.2746 0.9165 0.6141
 O 0.3337 0.0000 0.2863
 O 0.3337 0.0000 0.7137
 O 0.3437 0.4245 0.0000
 O 0.3437 0.5755 0.0000
 O 0.3524 0.4257 0.5000
 O 0.3524 0.5743 0.5000
 O 0.3645 0.5000 0.1537
 O 0.3645 0.5000 0.8463
 O 0.3769 0.0928 0.2241
 O 0.3769 0.0928 0.7759
 O 0.3769 0.9072 0.2241
 O 0.3769 0.9072 0.7759
 O 0.3800 0.2941 0.2084
 O 0.3800 0.2941 0.7916
 O 0.3800 0.7059 0.2084
 O 0.3800 0.7059 0.7916
 O 0.3814 0.4010 0.2087
 O 0.3814 0.4010 0.7913
 O 0.3814 0.5990 0.2087
 O 0.3814 0.5990 0.7913
 O 0.3848 0.1901 0.1610
 O 0.3848 0.1901 0.8390
 O 0.3848 0.8099 0.1610
 O 0.3848 0.8099 0.8390
 O 0.3876 0.2624 0.0000
 O 0.3876 0.7376 0.0000
 O 0.3951 0.1169 0.0000
 O 0.3951 0.8831 0.0000
 O 0.4104 0.3461 0.3912
 O 0.4104 0.3461 0.6088
 O 0.4104 0.6539 0.3912
 O 0.4104 0.6539 0.6088
 O 0.5000 0.1265 0.1520
 O 0.5000 0.1265 0.8480
 O 0.5000 0.2463 0.1358
 O 0.5000 0.2463 0.8642
 O 0.5000 0.3496 0.2116
 O 0.5000 0.3496 0.7884
 O 0.5000 0.4109 0.5000
 O 0.5000 0.5891 0.5000
 O 0.5000 0.6504 0.2116
 O 0.5000 0.6504 0.7884
 O 0.5000 0.7537 0.1358
 O 0.5000 0.7537 0.8642
 O 0.5000 0.8735 0.1520
 O 0.5000 0.8735 0.8480
 O 0.5896 0.3461 0.3912
 O 0.5896 0.3461 0.6088
 O 0.5896 0.6539 0.3912
 O 0.5896 0.6539 0.6088
 O 0.6049 0.1169 0.0000
 O 0.6049 0.8831 0.0000
 O 0.6124 0.2624 0.0000
 O 0.6124 0.7376 0.0000
 O 0.6152 0.1901 0.1610
 O 0.6152 0.1901 0.8390
 O 0.6152 0.8099 0.1610
 O 0.6152 0.8099 0.8390
 O 0.6186 0.4010 0.2087
 O 0.6186 0.4010 0.7913
 O 0.6186 0.5990 0.2087
 O 0.6186 0.5990 0.7913
 O 0.6200 0.2941 0.2084
 O 0.6200 0.2941 0.7916
 O 0.6200 0.7059 0.2084
 O 0.6200 0.7059 0.7916
 O 0.6231 0.0928 0.2241
 O 0.6231 0.0928 0.7759
 O 0.6231 0.9072 0.2241
 O 0.6231 0.9072 0.7759
 O 0.6355 0.5000 0.1537
 O 0.6355 0.5000 0.8463
 O 0.6476 0.4257 0.5000
 O 0.6476 0.5743 0.5000
 O 0.6563 0.4245 0.0000
 O 0.6563 0.5755 0.0000
 O 0.6663 0.0000 0.2863
 O 0.6663 0.0000 0.7137
 O 0.7254 0.0835 0.3859
 O 0.7254 0.0835 0.6141
 O 0.7254 0.9165 0.3859
 O 0.7254 0.9165 0.6141
 O 0.7385 0.5000 0.5000
 O 0.7485 0.4368 0.1666
 O 0.7485 0.4368 0.8334
 O 0.7485 0.5632 0.1666
 O 0.7485 0.5632 0.8334
 O 0.7515 0.0632 0.1666
 O 0.7515 0.0632 0.8334
 O 0.7515 0.9368 0.1666
 O 0.7515 0.9368 0.8334
 O 0.7615 0.0000 0.5000
 O 0.7615 1.0000 0.5000
 O 0.7746 0.4165 0.3859
 O 0.7746 0.4165 0.6141
 O 0.7746 0.5835 0.3859
 O 0.7746 0.5835 0.6141
 O 0.8337 0.5000 0.2863
 O 0.8337 0.5000 0.7137
 O 0.8437 0.0755 0.0000
 O 0.8437 0.9245 0.0000
 O 0.8524 0.0743 0.5000
 O 0.8524 0.9257 0.5000
 O 0.8645 0.0000 0.1537
 O 0.8645 0.0000 0.8463
 O 0.8645 1.0000 0.1537
 O 0.8645 1.0000 0.8463
 O 0.8769 0.4072 0.2241
 O 0.8769 0.4072 0.7759
 O 0.8769 0.5928 0.2241
 O 0.8769 0.5928 0.7759
 O 0.8800 0.2059 0.2084
 O 0.8800 0.2059 0.7916
 O 0.8800 0.7941 0.2084
 O 0.8800 0.7941 0.7916
 O 0.8814 0.0990 0.2087
 O 0.8814 0.0990 0.7913
 O 0.8814 0.9010 0.2087
 O 0.8814 0.9010 0.7913
 O 0.8848 0.3099 0.1610
 O 0.8848 0.3099 0.8390
 O 0.8848 0.6901 0.1610
 O 0.8848 0.6901 0.8390
 O 0.8876 0.2376 0.0000
 O 0.8876 0.7624 0.0000
 O 0.8951 0.3831 0.0000
 O 0.8951 0.6169 0.0000
 O 0.9104 0.1539 0.3912
 O 0.9104 0.1539 0.6088
 O 0.9104 0.8461 0.3912
 O 0.9104 0.8461 0.6088
 O 1.0000 0.0891 0.5000
 O 1.0000 0.1504 0.2116
 O 1.0000 0.1504 0.7884
 O 1.0000 0.2537 0.1358
 O 1.0000 0.2537 0.8642
 O 1.0000 0.3735 0.1520
 O 1.0000 0.3735 0.8480
 O 1.0000 0.6265 0.1520
 O 1.0000 0.6265 0.8480
 O 1.0000 0.7463 0.1358
 O 1.0000 0.7463 0.8642
 O 1.0000 0.8496 0.2116
 O 1.0000 0.8496 0.7884
 O 1.0000 0.9109 0.5000
 Si 0.0819 0.1160 0.5000
 Si 0.0819 0.8840 0.5000
 Si 0.0830 0.1520 0.2546
 Si 0.0830 0.1520 0.7454
 Si 0.0830 0.8480 0.2546
 Si 0.0830 0.8480 0.7454
 Si 0.0861 0.3688 0.1324
 Si 0.0861 0.3688 0.8676
 Si 0.0861 0.6312 0.1324
 Si 0.0861 0.6312 0.8676
 Si 0.0867 0.2518 0.1278
 Si 0.0867 0.2518 0.8722
 Si 0.0867 0.7482 0.1278
 Si 0.0867 0.7482 0.8722
 Si 0.1643 0.0595 0.1319
 Si 0.1643 0.0595 0.8681
 Si 0.1643 0.9405 0.1319
 Si 0.1643 0.9405 0.8681
 Si 0.1921 0.4401 0.2670
 Si 0.1921 0.4401 0.7330
 Si 0.1921 0.5599 0.2670
 Si 0.1921 0.5599 0.7330
 Si 0.2341 0.0618 0.5000
 Si 0.2341 0.9382 0.5000
 Si 0.2659 0.4382 0.5000
 Si 0.2659 0.5618 0.5000
 Si 0.3079 0.0599 0.2670
 Si 0.3079 0.0599 0.7330
 Si 0.3079 0.9401 0.2670
 Si 0.3079 0.9401 0.7330
 Si 0.3357 0.4405 0.1319
 Si 0.3357 0.4405 0.8681
 Si 0.3357 0.5595 0.1319
 Si 0.3357 0.5595 0.8681
 Si 0.4133 0.2482 0.1278
 Si 0.4133 0.2482 0.8722
 Si 0.4133 0.7518 0.1278
 Si 0.4133 0.7518 0.8722
 Si 0.4139 0.1312 0.1324
 Si 0.4139 0.1312 0.8676
 Si 0.4139 0.8688 0.1324
 Si 0.4139 0.8688 0.8676
 Si 0.4170 0.3480 0.2546
 Si 0.4170 0.3480 0.7454
 Si 0.4170 0.6520 0.2546
 Si 0.4170 0.6520 0.7454
 Si 0.4181 0.3840 0.5000
 Si 0.4181 0.6160 0.5000
 Si 0.5819 0.3840 0.5000
 Si 0.5819 0.6160 0.5000
 Si 0.5830 0.3480 0.2546
 Si 0.5830 0.3480 0.7454
 Si 0.5830 0.6520 0.2546
 Si 0.5830 0.6520 0.7454
 Si 0.5861 0.1312 0.1324
 Si 0.5861 0.1312 0.8676
 Si 0.5861 0.8688 0.1324
 Si 0.5861 0.8688 0.8676
 Si 0.5867 0.2482 0.1278
 Si 0.5867 0.2482 0.8722
 Si 0.5867 0.7518 0.1278
 Si 0.5867 0.7518 0.8722
 Si 0.6643 0.4405 0.1319
 Si 0.6643 0.4405 0.8681
 Si 0.6643 0.5595 0.1319
 Si 0.6643 0.5595 0.8681
 Si 0.6921 0.0599 0.2670
 Si 0.6921 0.0599 0.7330
 Si 0.6921 0.9401 0.2670
 Si 0.6921 0.9401 0.7330
 Si 0.7341 0.4382 0.5000
 Si 0.7341 0.5618 0.5000
 Si 0.7659 0.0618 0.5000
 Si 0.7659 0.9382 0.5000
 Si 0.8079 0.4401 0.2670
 Si 0.8079 0.4401 0.7330
 Si 0.8079 0.5599 0.2670
 Si 0.8079 0.5599 0.7330
 Si 0.8357 0.0595 0.1319
 Si 0.8357 0.0595 0.8681
 Si 0.8357 0.9405 0.1319
 Si 0.8357 0.9405 0.8681
 Si 0.9133 0.2518 0.1278
 Si 0.9133 0.2518 0.8722
 Si 0.9133 0.7482 0.1278
 Si 0.9133 0.7482 0.8722
 Si 0.9139 0.3688 0.1324
 Si 0.9139 0.3688 0.8676
 Si 0.9139 0.6312 0.1324
 Si 0.9139 0.6312 0.8676
 Si 0.9170 0.1520 0.2546
 Si 0.9170 0.1520 0.7454
 Si 0.9170 0.8480 0.2546
 Si 0.9170 0.8480 0.7454
 Si 0.9181 0.1160 0.5000
 Si 0.9181 0.8840 0.5000
