
data_image0
_symmetry_space_group_name_H-M    "P 1"
_symmetry_int_tables_number       1

loop_
 _symmetry_equiv_pos_as_xyz
 'x, y, z'

_cell_length_a	9.613078
_cell_length_b	17.556524
_cell_length_c	22.510996
_cell_angle_alpha	90.0
_cell_angle_beta	90.0
_cell_angle_gamma	90.0

loop_
 _atom_site_type_symbol
 _atom_site_fract_x
 _atom_site_fract_y
 _atom_site_fract_z
 O 0.0000 0.2500 0.0516
 O 0.0000 0.2500 0.4484
 O 0.0000 0.2500 0.6061
 O 0.0000 0.2500 0.8939
 O 0.0000 0.7500 0.1061
 O 0.0000 0.7500 0.3939
 O 0.0000 0.7500 0.5516
 O 0.0000 0.7500 0.9484
 O 0.0029 0.0342 0.0860
 O 0.0029 0.4658 0.4140
 O 0.0029 0.5342 0.9140
 O 0.0029 0.9658 0.5860
 O 0.0685 0.1071 0.6217
 O 0.0685 0.3929 0.8783
 O 0.0685 0.6071 0.3783
 O 0.0685 0.8929 0.1217
 O 0.1029 0.2001 0.7080
 O 0.1029 0.2999 0.7920
 O 0.1029 0.7001 0.2920
 O 0.1029 0.7999 0.2080
 O 0.1226 0.0673 0.5151
 O 0.1226 0.4327 0.9849
 O 0.1226 0.5673 0.4849
 O 0.1226 0.9327 0.0151
 O 0.1813 0.1452 0.4214
 O 0.1813 0.3548 0.0786
 O 0.1813 0.6452 0.5786
 O 0.1813 0.8548 0.9214
 O 0.2325 0.2147 0.1117
 O 0.2325 0.2853 0.3883
 O 0.2325 0.7147 0.8883
 O 0.2325 0.7853 0.6117
 O 0.2500 0.0000 0.1064
 O 0.2500 0.0000 0.4252
 O 0.2500 0.0000 0.6064
 O 0.2500 0.0000 0.9252
 O 0.2500 0.2500 0.0000
 O 0.2500 0.2500 0.5000
 O 0.2500 0.2500 1.0000
 O 0.2500 0.5000 0.0748
 O 0.2500 0.5000 0.3936
 O 0.2500 0.5000 0.5748
 O 0.2500 0.5000 0.8936
 O 0.2500 0.7500 0.0000
 O 0.2500 0.7500 0.5000
 O 0.2500 0.7500 1.0000
 O 0.2500 1.0000 0.1064
 O 0.2500 1.0000 0.6064
 O 0.2675 0.2147 0.6117
 O 0.2675 0.2853 0.8883
 O 0.2675 0.7147 0.3883
 O 0.2675 0.7853 0.1117
 O 0.3187 0.1452 0.9214
 O 0.3187 0.3548 0.5786
 O 0.3187 0.6452 0.0786
 O 0.3187 0.8548 0.4214
 O 0.3774 0.0673 0.0151
 O 0.3774 0.4327 0.4849
 O 0.3774 0.5673 0.9849
 O 0.3774 0.9327 0.5151
 O 0.3971 0.2001 0.2080
 O 0.3971 0.2999 0.2920
 O 0.3971 0.7001 0.7920
 O 0.3971 0.7999 0.7080
 O 0.4315 0.1071 0.1217
 O 0.4315 0.3929 0.3783
 O 0.4315 0.6071 0.8783
 O 0.4315 0.8929 0.6217
 O 0.4971 0.0342 0.5860
 O 0.4971 0.4658 0.9140
 O 0.4971 0.5342 0.4140
 O 0.4971 0.9658 0.0860
 O 0.5000 0.2500 0.1061
 O 0.5000 0.2500 0.3939
 O 0.5000 0.2500 0.5516
 O 0.5000 0.2500 0.9484
 O 0.5000 0.7500 0.0516
 O 0.5000 0.7500 0.4484
 O 0.5000 0.7500 0.6061
 O 0.5000 0.7500 0.8939
 O 0.5029 0.0342 0.9140
 O 0.5029 0.4658 0.5860
 O 0.5029 0.5342 0.0860
 O 0.5029 0.9658 0.4140
 O 0.5685 0.1071 0.3783
 O 0.5685 0.3929 0.1217
 O 0.5685 0.6071 0.6217
 O 0.5685 0.8929 0.8783
 O 0.6029 0.2001 0.2920
 O 0.6029 0.2999 0.2080
 O 0.6029 0.7001 0.7080
 O 0.6029 0.7999 0.7920
 O 0.6226 0.0673 0.4849
 O 0.6226 0.4327 0.0151
 O 0.6226 0.5673 0.5151
 O 0.6226 0.9327 0.9849
 O 0.6813 0.1452 0.5786
 O 0.6813 0.3548 0.9214
 O 0.6813 0.6452 0.4214
 O 0.6813 0.8548 0.0786
 O 0.7325 0.2147 0.8883
 O 0.7325 0.2853 0.6117
 O 0.7325 0.7147 0.1117
 O 0.7325 0.7853 0.3883
 O 0.7500 0.0000 0.0748
 O 0.7500 0.0000 0.3936
 O 0.7500 0.0000 0.5748
 O 0.7500 0.0000 0.8936
 O 0.7500 0.2500 0.0000
 O 0.7500 0.2500 0.5000
 O 0.7500 0.2500 1.0000
 O 0.7500 0.5000 0.1064
 O 0.7500 0.5000 0.4252
 O 0.7500 0.5000 0.6064
 O 0.7500 0.5000 0.9252
 O 0.7500 0.7500 0.0000
 O 0.7500 0.7500 0.5000
 O 0.7500 0.7500 1.0000
 O 0.7500 1.0000 0.3936
 O 0.7500 1.0000 0.8936
 O 0.7675 0.2147 0.3883
 O 0.7675 0.2853 0.1117
 O 0.7675 0.7147 0.6117
 O 0.7675 0.7853 0.8883
 O 0.8187 0.1452 0.0786
 O 0.8187 0.3548 0.4214
 O 0.8187 0.6452 0.9214
 O 0.8187 0.8548 0.5786
 O 0.8774 0.0673 0.9849
 O 0.8774 0.4327 0.5151
 O 0.8774 0.5673 0.0151
 O 0.8774 0.9327 0.4849
 O 0.8971 0.2001 0.7920
 O 0.8971 0.2999 0.7080
 O 0.8971 0.7001 0.2080
 O 0.8971 0.7999 0.2920
 O 0.9315 0.1071 0.8783
 O 0.9315 0.3929 0.6217
 O 0.9315 0.6071 0.1217
 O 0.9315 0.8929 0.3783
 O 0.9971 0.0342 0.4140
 O 0.9971 0.4658 0.0860
 O 0.9971 0.5342 0.5860
 O 0.9971 0.9658 0.9140
 O 1.0000 0.2500 0.0516
 O 1.0000 0.2500 0.4484
 O 1.0000 0.7500 0.5516
 O 1.0000 0.7500 0.9484
 Si 0.0000 0.2500 0.7500
 Si 0.0000 0.7500 0.2500
 Si 0.1096 0.0357 0.5816
 Si 0.1096 0.4643 0.9184
 Si 0.1096 0.5357 0.4184
 Si 0.1096 0.9643 0.0816
 Si 0.1136 0.1930 0.6362
 Si 0.1136 0.3070 0.8638
 Si 0.1136 0.6930 0.3638
 Si 0.1136 0.8070 0.1362
 Si 0.1383 0.0620 0.4445
 Si 0.1383 0.4380 0.0555
 Si 0.1383 0.5620 0.5555
 Si 0.1383 0.9380 0.9445
 Si 0.1642 0.2334 0.4403
 Si 0.1642 0.2666 0.0597
 Si 0.1642 0.7334 0.5597
 Si 0.1642 0.7666 0.9403
 Si 0.3358 0.2334 0.9403
 Si 0.3358 0.2666 0.5597
 Si 0.3358 0.7334 0.0597
 Si 0.3358 0.7666 0.4403
 Si 0.3617 0.0620 0.9445
 Si 0.3617 0.4380 0.5555
 Si 0.3617 0.5620 0.0555
 Si 0.3617 0.9380 0.4445
 Si 0.3864 0.1930 0.1362
 Si 0.3864 0.3070 0.3638
 Si 0.3864 0.6930 0.8638
 Si 0.3864 0.8070 0.6362
 Si 0.3904 0.0357 0.0816
 Si 0.3904 0.4643 0.4184
 Si 0.3904 0.5357 0.9184
 Si 0.3904 0.9643 0.5816
 Si 0.5000 0.2500 0.2500
 Si 0.5000 0.7500 0.7500
 Si 0.6096 0.0357 0.4184
 Si 0.6096 0.4643 0.0816
 Si 0.6096 0.5357 0.5816
 Si 0.6096 0.9643 0.9184
 Si 0.6136 0.1930 0.3638
 Si 0.6136 0.3070 0.1362
 Si 0.6136 0.6930 0.6362
 Si 0.6136 0.8070 0.8638
 Si 0.6383 0.0620 0.5555
 Si 0.6383 0.4380 0.9445
 Si 0.6383 0.5620 0.4445
 Si 0.6383 0.9380 0.0555
 Si 0.6642 0.2334 0.5597
 Si 0.6642 0.2666 0.9403
 Si 0.6642 0.7334 0.4403
 Si 0.6642 0.7666 0.0597
 Si 0.8358 0.2334 0.0597
 Si 0.8358 0.2666 0.4403
 Si 0.8358 0.7334 0.9403
 Si 0.8358 0.7666 0.5597
 Si 0.8617 0.0620 0.0555
 Si 0.8617 0.4380 0.4445
 Si 0.8617 0.5620 0.9445
 Si 0.8617 0.9380 0.5555
 Si 0.8864 0.1930 0.8638
 Si 0.8864 0.3070 0.6362
 Si 0.8864 0.6930 0.1362
 Si 0.8864 0.8070 0.3638
 Si 0.8904 0.0357 0.9184
 Si 0.8904 0.4643 0.5816
 Si 0.8904 0.5357 0.0816
 Si 0.8904 0.9643 0.4184
