
data_image0
_symmetry_space_group_name_H-M    "P 1"
_symmetry_int_tables_number       1

loop_
 _symmetry_equiv_pos_as_xyz
 'x, y, z'

_cell_length_a	14.321997
_cell_length_b	14.321997
_cell_length_c	19.563343
_cell_angle_alpha	90.0
_cell_angle_beta	90.0
_cell_angle_gamma	90.0

loop_
 _atom_site_type_symbol
 _atom_site_fract_x
 _atom_site_fract_y
 _atom_site_fract_z
 O 0.0006 0.1643 0.2626
 O 0.0006 0.6643 0.7374
 O 0.0022 0.1643 0.8792
 O 0.0022 0.6643 0.1208
 O 0.0058 0.0032 0.8042
 O 0.0058 0.5032 0.1958
 O 0.0833 0.4743 0.3171
 O 0.0833 0.9743 0.6829
 O 0.0857 0.2506 0.9874
 O 0.0857 0.7506 0.0126
 O 0.0857 0.2522 0.3708
 O 0.0857 0.7522 0.6292
 O 0.0870 0.4800 0.9182
 O 0.0870 0.9800 0.0818
 O 0.0999 0.0260 0.3025
 O 0.0999 0.5260 0.6975
 O 0.1000 0.0216 0.9175
 O 0.1000 0.5216 0.0825
 O 0.2220 0.4945 0.6120
 O 0.2220 0.9945 0.3880
 O 0.2240 0.3499 0.9475
 O 0.2240 0.8499 0.0525
 O 0.2243 0.1667 0.9329
 O 0.2243 0.6667 0.0671
 O 0.2254 0.4798 0.2376
 O 0.2254 0.9798 0.7624
 O 0.2284 0.3500 0.3325
 O 0.2284 0.8500 0.6675
 O 0.2298 0.0246 0.0124
 O 0.2298 0.5246 0.9876
 O 0.2300 0.1630 0.3318
 O 0.2300 0.6630 0.6682
 O 0.2445 0.0280 0.6380
 O 0.2445 0.5280 0.3620
 O 0.2468 0.2558 0.4458
 O 0.2468 0.7558 0.5542
 O 0.2532 0.2442 0.0542
 O 0.2532 0.7442 0.9458
 O 0.2555 0.4720 0.8620
 O 0.2555 0.9720 0.1380
 O 0.2700 0.3370 0.1682
 O 0.2700 0.8370 0.8318
 O 0.2702 0.4754 0.4876
 O 0.2702 0.9754 0.5124
 O 0.2716 0.1500 0.1675
 O 0.2716 0.6500 0.8325
 O 0.2746 0.0202 0.2624
 O 0.2746 0.5202 0.7376
 O 0.2757 0.3333 0.5671
 O 0.2757 0.8333 0.4329
 O 0.2760 0.1501 0.5525
 O 0.2760 0.6501 0.4475
 O 0.2780 0.0055 0.8880
 O 0.2780 0.5055 0.1120
 O 0.4000 0.4784 0.5825
 O 0.4000 0.9784 0.4175
 O 0.4001 0.4740 0.1975
 O 0.4001 0.9740 0.8025
 O 0.4130 0.0200 0.5818
 O 0.4130 0.5200 0.4182
 O 0.4143 0.2478 0.1292
 O 0.4143 0.7478 0.8708
 O 0.4143 0.2494 0.5126
 O 0.4143 0.7494 0.4874
 O 0.4167 0.0257 0.1829
 O 0.4167 0.5257 0.8171
 O 0.4942 0.4968 0.6958
 O 0.4942 0.9968 0.3042
 O 0.4978 0.3357 0.6208
 O 0.4978 0.8357 0.3792
 O 0.4994 0.3357 0.2374
 O 0.4994 0.8357 0.7626
 O 0.5006 0.1643 0.2374
 O 0.5006 0.6643 0.7626
 O 0.5022 0.1643 0.6208
 O 0.5022 0.6643 0.3792
 O 0.5058 0.0032 0.6958
 O 0.5058 0.5032 0.3042
 O 0.5833 0.4743 0.1829
 O 0.5833 0.9743 0.8171
 O 0.5857 0.2506 0.5126
 O 0.5857 0.7506 0.4874
 O 0.5857 0.2522 0.1292
 O 0.5857 0.7522 0.8708
 O 0.5870 0.4800 0.5818
 O 0.5870 0.9800 0.4182
 O 0.5999 0.0260 0.1975
 O 0.5999 0.5260 0.8025
 O 0.6000 0.0216 0.5825
 O 0.6000 0.5216 0.4175
 O 0.7220 0.4945 0.8880
 O 0.7220 0.9945 0.1120
 O 0.7240 0.3499 0.5525
 O 0.7240 0.8499 0.4475
 O 0.7243 0.1667 0.5671
 O 0.7243 0.6667 0.4329
 O 0.7254 0.4798 0.2624
 O 0.7254 0.9798 0.7376
 O 0.7284 0.3500 0.1675
 O 0.7284 0.8500 0.8325
 O 0.7298 0.0246 0.4876
 O 0.7298 0.5246 0.5124
 O 0.7300 0.1630 0.1682
 O 0.7300 0.6630 0.8318
 O 0.7445 0.0280 0.8620
 O 0.7445 0.5280 0.1380
 O 0.7468 0.2558 0.0542
 O 0.7468 0.7558 0.9458
 O 0.7532 0.2442 0.4458
 O 0.7532 0.7442 0.5542
 O 0.7555 0.4720 0.6380
 O 0.7555 0.9720 0.3620
 O 0.7700 0.3370 0.3318
 O 0.7700 0.8370 0.6682
 O 0.7702 0.4754 0.0124
 O 0.7702 0.9754 0.9876
 O 0.7716 0.1500 0.3325
 O 0.7716 0.6500 0.6675
 O 0.7746 0.0202 0.2376
 O 0.7746 0.5202 0.7624
 O 0.7757 0.3333 0.9329
 O 0.7757 0.8333 0.0671
 O 0.7760 0.1501 0.9475
 O 0.7760 0.6501 0.0525
 O 0.7780 0.0055 0.6120
 O 0.7780 0.5055 0.3880
 O 0.9000 0.4784 0.9175
 O 0.9000 0.9784 0.0825
 O 0.9001 0.4740 0.3025
 O 0.9001 0.9740 0.6975
 O 0.9130 0.0200 0.9182
 O 0.9130 0.5200 0.0818
 O 0.9143 0.2478 0.3708
 O 0.9143 0.7478 0.6292
 O 0.9143 0.2494 0.9874
 O 0.9143 0.7494 0.0126
 O 0.9167 0.0257 0.3171
 O 0.9167 0.5257 0.6829
 O 0.9942 0.4968 0.8042
 O 0.9942 0.9968 0.1958
 O 0.9978 0.3357 0.8792
 O 0.9978 0.8357 0.1208
 O 0.9994 0.3357 0.2626
 O 0.9994 0.8357 0.7374
 Si 0.0000 0.2500 0.3168
 Si 0.0000 0.2500 0.9332
 Si 0.0000 0.7500 0.0668
 Si 0.0000 0.7500 0.6832
 Si 0.0032 0.0512 0.2672
 Si 0.0032 0.5512 0.7328
 Si 0.0057 0.0515 0.8783
 Si 0.0057 0.5515 0.1217
 Si 0.1942 0.4550 0.3139
 Si 0.1942 0.9550 0.6861
 Si 0.1960 0.4552 0.9292
 Si 0.1960 0.9552 0.0708
 Si 0.1985 0.2557 0.3717
 Si 0.1985 0.7557 0.6283
 Si 0.1988 0.2532 0.9828
 Si 0.1988 0.7532 0.0172
 Si 0.2050 0.0558 0.9361
 Si 0.2050 0.5558 0.0639
 Si 0.2052 0.0540 0.3208
 Si 0.2052 0.5540 0.6792
 Si 0.2948 0.4460 0.1792
 Si 0.2948 0.9460 0.8208
 Si 0.2950 0.4442 0.5639
 Si 0.2950 0.9442 0.4361
 Si 0.3012 0.2468 0.5172
 Si 0.3012 0.7468 0.4828
 Si 0.3015 0.2443 0.1283
 Si 0.3015 0.7443 0.8717
 Si 0.3040 0.0448 0.5708
 Si 0.3040 0.5448 0.4292
 Si 0.3058 0.0450 0.1861
 Si 0.3058 0.5450 0.8139
 Si 0.4943 0.4485 0.6217
 Si 0.4943 0.9485 0.3783
 Si 0.4968 0.4488 0.2328
 Si 0.4968 0.9488 0.7672
 Si 0.5000 0.2500 0.1832
 Si 0.5000 0.2500 0.5668
 Si 0.5000 0.7500 0.4332
 Si 0.5000 0.7500 0.8168
 Si 0.5032 0.0512 0.2328
 Si 0.5032 0.5512 0.7672
 Si 0.5057 0.0515 0.6217
 Si 0.5057 0.5515 0.3783
 Si 0.6942 0.4550 0.1861
 Si 0.6942 0.9550 0.8139
 Si 0.6960 0.4552 0.5708
 Si 0.6960 0.9552 0.4292
 Si 0.6985 0.2557 0.1283
 Si 0.6985 0.7557 0.8717
 Si 0.6988 0.2532 0.5172
 Si 0.6988 0.7532 0.4828
 Si 0.7050 0.0558 0.5639
 Si 0.7050 0.5558 0.4361
 Si 0.7052 0.0540 0.1792
 Si 0.7052 0.5540 0.8208
 Si 0.7948 0.4460 0.3208
 Si 0.7948 0.9460 0.6792
 Si 0.7950 0.4442 0.9361
 Si 0.7950 0.9442 0.0639
 Si 0.8012 0.2468 0.9828
 Si 0.8012 0.7468 0.0172
 Si 0.8015 0.2443 0.3717
 Si 0.8015 0.7443 0.6283
 Si 0.8040 0.0448 0.9292
 Si 0.8040 0.5448 0.0708
 Si 0.8058 0.0450 0.3139
 Si 0.8058 0.5450 0.6861
 Si 0.9943 0.4485 0.8783
 Si 0.9943 0.9485 0.1217
 Si 0.9968 0.4488 0.2672
 Si 0.9968 0.9488 0.7328
 Si 1.0000 0.2500 0.3168
 Si 1.0000 0.7500 0.6832
