
data_image0
_symmetry_space_group_name_H-M    "P 1"
_symmetry_int_tables_number       1

loop_
 _symmetry_equiv_pos_as_xyz
 'x, y, z'

_cell_length_a	11.735466
_cell_length_b	11.735466
_cell_length_c	30.060585
_cell_angle_alpha	90.0
_cell_angle_beta	90.0
_cell_angle_gamma	90.0

loop_
 _atom_site_type_symbol
 _atom_site_fract_x
 _atom_site_fract_y
 _atom_site_fract_z
 O 0.0000 0.0000 0.0732
 O 0.0000 0.0000 0.4268
 O 0.0000 0.0000 0.5732
 O 0.0000 0.0000 0.9268
 O 0.0000 0.1176 0.0000
 O 0.0000 0.1176 1.0000
 O 0.0000 0.3163 0.3709
 O 0.0000 0.3163 0.6291
 O 0.0000 0.5000 0.3266
 O 0.0000 0.5000 0.4236
 O 0.0000 0.5000 0.5764
 O 0.0000 0.5000 0.6734
 O 0.0000 0.6837 0.3709
 O 0.0000 0.6837 0.6291
 O 0.0000 0.8824 0.0000
 O 0.0000 0.8824 1.0000
 O 0.1106 0.3185 0.4463
 O 0.1106 0.3185 0.5537
 O 0.1106 0.6815 0.4463
 O 0.1106 0.6815 0.5537
 O 0.1116 0.3271 0.2939
 O 0.1116 0.3271 0.7061
 O 0.1116 0.6729 0.2939
 O 0.1116 0.6729 0.7061
 O 0.1125 0.1941 0.0689
 O 0.1125 0.1941 0.9311
 O 0.1125 0.8059 0.0689
 O 0.1125 0.8059 0.9311
 O 0.1176 0.0000 0.5000
 O 0.1941 0.1125 0.4311
 O 0.1941 0.1125 0.5689
 O 0.1941 0.8875 0.4311
 O 0.1941 0.8875 0.5689
 O 0.2358 0.2631 0.0000
 O 0.2358 0.7369 0.0000
 O 0.2555 0.5000 0.2793
 O 0.2555 0.5000 0.7207
 O 0.2631 0.2358 0.5000
 O 0.2631 0.7642 0.5000
 O 0.2900 0.3240 0.0797
 O 0.2900 0.3240 0.9203
 O 0.2900 0.6760 0.0797
 O 0.2900 0.6760 0.9203
 O 0.2967 0.2967 0.2500
 O 0.2967 0.2967 0.7500
 O 0.2967 0.7033 0.2500
 O 0.2967 0.7033 0.7500
 O 0.3053 0.3341 0.3353
 O 0.3053 0.3341 0.6647
 O 0.3053 0.6659 0.3353
 O 0.3053 0.6659 0.6647
 O 0.3163 0.0000 0.1291
 O 0.3163 0.0000 0.8709
 O 0.3185 0.1106 0.0537
 O 0.3185 0.1106 0.9463
 O 0.3185 0.8894 0.0537
 O 0.3185 0.8894 0.9463
 O 0.3240 0.2900 0.4203
 O 0.3240 0.2900 0.5797
 O 0.3240 0.7100 0.4203
 O 0.3240 0.7100 0.5797
 O 0.3271 0.1116 0.2061
 O 0.3271 0.1116 0.7939
 O 0.3271 0.8884 0.2061
 O 0.3271 0.8884 0.7939
 O 0.3341 0.3053 0.1647
 O 0.3341 0.3053 0.8353
 O 0.3341 0.6947 0.1647
 O 0.3341 0.6947 0.8353
 O 0.3399 0.5000 0.3926
 O 0.3399 0.5000 0.6074
 O 0.3479 0.5000 0.1263
 O 0.3479 0.5000 0.8737
 O 0.5000 0.0000 0.0764
 O 0.5000 0.0000 0.1734
 O 0.5000 0.0000 0.8266
 O 0.5000 0.0000 0.9236
 O 0.5000 0.2555 0.2207
 O 0.5000 0.2555 0.7793
 O 0.5000 0.3399 0.1074
 O 0.5000 0.3399 0.8926
 O 0.5000 0.3479 0.3737
 O 0.5000 0.3479 0.6263
 O 0.5000 0.6521 0.3737
 O 0.5000 0.6521 0.6263
 O 0.5000 0.6601 0.1074
 O 0.5000 0.6601 0.8926
 O 0.5000 0.7445 0.2207
 O 0.5000 0.7445 0.7793
 O 0.6521 0.5000 0.1263
 O 0.6521 0.5000 0.8737
 O 0.6601 0.5000 0.3926
 O 0.6601 0.5000 0.6074
 O 0.6659 0.3053 0.1647
 O 0.6659 0.3053 0.8353
 O 0.6659 0.6947 0.1647
 O 0.6659 0.6947 0.8353
 O 0.6729 0.1116 0.2061
 O 0.6729 0.1116 0.7939
 O 0.6729 0.8884 0.2061
 O 0.6729 0.8884 0.7939
 O 0.6760 0.2900 0.4203
 O 0.6760 0.2900 0.5797
 O 0.6760 0.7100 0.4203
 O 0.6760 0.7100 0.5797
 O 0.6815 0.1106 0.0537
 O 0.6815 0.1106 0.9463
 O 0.6815 0.8894 0.0537
 O 0.6815 0.8894 0.9463
 O 0.6837 0.0000 0.1291
 O 0.6837 0.0000 0.8709
 O 0.6947 0.3341 0.3353
 O 0.6947 0.3341 0.6647
 O 0.6947 0.6659 0.3353
 O 0.6947 0.6659 0.6647
 O 0.7033 0.2967 0.2500
 O 0.7033 0.2967 0.7500
 O 0.7033 0.7033 0.2500
 O 0.7033 0.7033 0.7500
 O 0.7100 0.3240 0.0797
 O 0.7100 0.3240 0.9203
 O 0.7100 0.6760 0.0797
 O 0.7100 0.6760 0.9203
 O 0.7369 0.2358 0.5000
 O 0.7369 0.7642 0.5000
 O 0.7445 0.5000 0.2793
 O 0.7445 0.5000 0.7207
 O 0.7642 0.2631 0.0000
 O 0.7642 0.7369 0.0000
 O 0.8059 0.1125 0.4311
 O 0.8059 0.1125 0.5689
 O 0.8059 0.8875 0.4311
 O 0.8059 0.8875 0.5689
 O 0.8824 0.0000 0.5000
 O 0.8875 0.1941 0.0689
 O 0.8875 0.1941 0.9311
 O 0.8875 0.8059 0.0689
 O 0.8875 0.8059 0.9311
 O 0.8884 0.3271 0.2939
 O 0.8884 0.3271 0.7061
 O 0.8884 0.6729 0.2939
 O 0.8884 0.6729 0.7061
 O 0.8894 0.3185 0.4463
 O 0.8894 0.3185 0.5537
 O 0.8894 0.6815 0.4463
 O 0.8894 0.6815 0.5537
 Si 0.0000 0.1276 0.0528
 Si 0.0000 0.1276 0.9472
 Si 0.0000 0.3644 0.4213
 Si 0.0000 0.3644 0.5787
 Si 0.0000 0.3658 0.3209
 Si 0.0000 0.3658 0.6791
 Si 0.0000 0.6342 0.3209
 Si 0.0000 0.6342 0.6791
 Si 0.0000 0.6356 0.4213
 Si 0.0000 0.6356 0.5787
 Si 0.0000 0.8724 0.0528
 Si 0.0000 0.8724 0.9472
 Si 0.1276 0.0000 0.4472
 Si 0.1276 0.0000 0.5528
 Si 0.2215 0.2394 0.4491
 Si 0.2215 0.2394 0.5509
 Si 0.2215 0.7606 0.4491
 Si 0.2215 0.7606 0.5509
 Si 0.2394 0.2215 0.0509
 Si 0.2394 0.2215 0.9491
 Si 0.2394 0.7785 0.0509
 Si 0.2394 0.7785 0.9491
 Si 0.2428 0.3664 0.2897
 Si 0.2428 0.3664 0.7103
 Si 0.2428 0.6336 0.2897
 Si 0.2428 0.6336 0.7103
 Si 0.3644 0.0000 0.0787
 Si 0.3644 0.0000 0.9213
 Si 0.3658 0.0000 0.1791
 Si 0.3658 0.0000 0.8209
 Si 0.3664 0.2428 0.2103
 Si 0.3664 0.2428 0.7897
 Si 0.3664 0.7572 0.2103
 Si 0.3664 0.7572 0.7897
 Si 0.3673 0.3690 0.3806
 Si 0.3673 0.3690 0.6194
 Si 0.3673 0.6310 0.3806
 Si 0.3673 0.6310 0.6194
 Si 0.3690 0.3673 0.1194
 Si 0.3690 0.3673 0.8806
 Si 0.3690 0.6327 0.1194
 Si 0.3690 0.6327 0.8806
 Si 0.6310 0.3673 0.1194
 Si 0.6310 0.3673 0.8806
 Si 0.6310 0.6327 0.1194
 Si 0.6310 0.6327 0.8806
 Si 0.6327 0.3690 0.3806
 Si 0.6327 0.3690 0.6194
 Si 0.6327 0.6310 0.3806
 Si 0.6327 0.6310 0.6194
 Si 0.6336 0.2428 0.2103
 Si 0.6336 0.2428 0.7897
 Si 0.6336 0.7572 0.2103
 Si 0.6336 0.7572 0.7897
 Si 0.6342 0.0000 0.1791
 Si 0.6342 0.0000 0.8209
 Si 0.6356 0.0000 0.0787
 Si 0.6356 0.0000 0.9213
 Si 0.7572 0.3664 0.2897
 Si 0.7572 0.3664 0.7103
 Si 0.7572 0.6336 0.2897
 Si 0.7572 0.6336 0.7103
 Si 0.7606 0.2215 0.0509
 Si 0.7606 0.2215 0.9491
 Si 0.7606 0.7785 0.0509
 Si 0.7606 0.7785 0.9491
 Si 0.7785 0.2394 0.4491
 Si 0.7785 0.2394 0.5509
 Si 0.7785 0.7606 0.4491
 Si 0.7785 0.7606 0.5509
 Si 0.8724 0.0000 0.4472
 Si 0.8724 0.0000 0.5528
