
data_image0
_symmetry_space_group_name_H-M    "P 1"
_symmetry_int_tables_number       1

loop_
 _symmetry_equiv_pos_as_xyz
 'x, y, z'

_cell_length_a	14.573604
_cell_length_b	14.573604
_cell_length_c	12.07167
_cell_angle_alpha	90.0
_cell_angle_beta	90.0
_cell_angle_gamma	120.0

loop_
 _atom_site_type_symbol
 _atom_site_fract_x
 _atom_site_fract_y
 _atom_site_fract_z
 O 0.0202 0.8512 0.5554
 O 0.0339 0.2369 0.6343
 O 0.0482 0.1727 0.8587
 O 0.0598 0.2189 0.1609
 O 0.0603 0.7343 0.2028
 O 0.0631 0.6517 0.4019
 O 0.0716 0.7974 0.0005
 O 0.1106 0.7673 0.8011
 O 0.1203 0.4250 0.7093
 O 0.1244 0.9518 0.8587
 O 0.1447 0.7088 0.6092
 O 0.1488 0.1690 0.5554
 O 0.1504 0.3376 0.4564
 O 0.1592 0.9402 0.1609
 O 0.1690 0.0202 0.4446
 O 0.1727 0.1244 0.1413
 O 0.1872 0.8496 0.4564
 O 0.2026 0.2742 0.0005
 O 0.2031 0.9661 0.6343
 O 0.2189 0.1592 0.8391
 O 0.2327 0.3433 0.8011
 O 0.2369 0.2031 0.3657
 O 0.2450 0.6954 0.7879
 O 0.2638 0.7171 0.4377
 O 0.2657 0.3260 0.2028
 O 0.2742 0.0716 0.9995
 O 0.2829 0.5468 0.4377
 O 0.2912 0.4358 0.6092
 O 0.3046 0.5496 0.7879
 O 0.3047 0.8797 0.7093
 O 0.3260 0.0603 0.7972
 O 0.3333 0.6667 0.6141
 O 0.3376 0.1872 0.5436
 O 0.3433 0.1106 0.1989
 O 0.3483 0.4114 0.4019
 O 0.4114 0.0631 0.5981
 O 0.4250 0.3047 0.2907
 O 0.4358 0.1447 0.3908
 O 0.4504 0.7550 0.7879
 O 0.4532 0.7362 0.4377
 O 0.5468 0.2638 0.5623
 O 0.5496 0.2450 0.2121
 O 0.5642 0.8553 0.6092
 O 0.5750 0.6953 0.7093
 O 0.5886 0.9369 0.4019
 O 0.6517 0.5886 0.5981
 O 0.6567 0.8894 0.8011
 O 0.6624 0.8128 0.4564
 O 0.6667 0.3333 0.3859
 O 0.6740 0.9397 0.2028
 O 0.6953 0.1203 0.2907
 O 0.6954 0.4504 0.2121
 O 0.7088 0.5642 0.3908
 O 0.7171 0.4532 0.5623
 O 0.7258 0.9284 0.0005
 O 0.7343 0.6740 0.7972
 O 0.7362 0.2829 0.5623
 O 0.7550 0.3046 0.2121
 O 0.7631 0.7969 0.6343
 O 0.7673 0.6567 0.1989
 O 0.7811 0.8408 0.1609
 O 0.7969 0.0339 0.3657
 O 0.7974 0.7258 0.9995
 O 0.8128 0.1504 0.5436
 O 0.8273 0.8756 0.8587
 O 0.8310 0.9798 0.5554
 O 0.8408 0.0598 0.8391
 O 0.8496 0.6624 0.5436
 O 0.8512 0.8310 0.4446
 O 0.8553 0.2912 0.3908
 O 0.8756 0.0482 0.1413
 O 0.8797 0.5750 0.2907
 O 0.8894 0.2327 0.1989
 O 0.9284 0.2026 0.9995
 O 0.9369 0.3483 0.5981
 O 0.9397 0.2657 0.7972
 O 0.9402 0.7811 0.8391
 O 0.9518 0.8273 0.1413
 O 0.9661 0.7631 0.3657
 O 0.9798 0.1488 0.4446
 Si 0.0055 0.3223 0.6859
 Si 0.0613 0.8267 0.1261
 Si 0.0618 0.8253 0.8735
 Si 0.0813 0.2246 0.5193
 Si 0.1432 0.9187 0.5193
 Si 0.1657 0.7302 0.4773
 Si 0.1733 0.2346 0.1261
 Si 0.1747 0.2365 0.8735
 Si 0.1990 0.7629 0.7271
 Si 0.2246 0.1432 0.4807
 Si 0.2346 0.0613 0.8739
 Si 0.2365 0.0618 0.1265
 Si 0.2371 0.4361 0.7271
 Si 0.2698 0.4355 0.4773
 Si 0.3168 0.9945 0.6859
 Si 0.3223 0.3168 0.3141
 Si 0.3333 0.6667 0.4827
 Si 0.3333 0.6667 0.7468
 Si 0.4355 0.1657 0.5227
 Si 0.4361 0.1990 0.2729
 Si 0.5639 0.8010 0.7271
 Si 0.5645 0.8343 0.4773
 Si 0.6667 0.3333 0.2532
 Si 0.6667 0.3333 0.5173
 Si 0.6777 0.6832 0.6859
 Si 0.6832 0.0055 0.3141
 Si 0.7302 0.5645 0.5227
 Si 0.7629 0.5639 0.2729
 Si 0.7635 0.9382 0.8735
 Si 0.7654 0.9387 0.1261
 Si 0.7754 0.8568 0.5193
 Si 0.8010 0.2371 0.2729
 Si 0.8253 0.7635 0.1265
 Si 0.8267 0.7654 0.8739
 Si 0.8343 0.2698 0.5227
 Si 0.8568 0.0813 0.4807
 Si 0.9187 0.7754 0.4807
 Si 0.9382 0.1747 0.1265
 Si 0.9387 0.1733 0.8739
 Si 0.9945 0.6777 0.3141
