
data_image0
_symmetry_space_group_name_H-M    "P 1"
_symmetry_int_tables_number       1

loop_
 _symmetry_equiv_pos_as_xyz
 'x, y, z'

_cell_length_a	14.444117
_cell_length_b	14.444117
_cell_length_c	20.069584
_cell_angle_alpha	90.0
_cell_angle_beta	90.0
_cell_angle_gamma	120.0

loop_
 _atom_site_type_symbol
 _atom_site_fract_x
 _atom_site_fract_y
 _atom_site_fract_z
 O 0.0000 0.1692 0.1943
 O 0.0000 0.1753 0.4034
 O 0.0000 0.1796 0.5980
 O 0.0000 0.1892 0.8037
 O 0.0000 0.4583 0.1209
 O 0.0000 0.4595 0.2741
 O 0.0000 0.5405 0.7259
 O 0.0000 0.5417 0.8791
 O 0.0000 0.8108 0.1963
 O 0.0000 0.8204 0.4020
 O 0.0000 0.8247 0.5966
 O 0.0000 0.8308 0.8057
 O 0.1265 0.4713 0.9151
 O 0.1265 0.6552 0.0849
 O 0.1276 0.4706 0.6906
 O 0.1276 0.6570 0.3094
 O 0.1386 0.2772 0.5000
 O 0.1386 0.8614 0.5000
 O 0.1529 0.3188 0.1231
 O 0.1529 0.8341 0.8769
 O 0.1582 0.3347 0.2523
 O 0.1582 0.8235 0.7477
 O 0.1627 0.5747 0.8025
 O 0.1627 0.5880 0.1975
 O 0.1659 0.3188 0.8769
 O 0.1659 0.8471 0.1231
 O 0.1692 0.0000 0.1943
 O 0.1692 0.1692 0.8057
 O 0.1753 0.0000 0.4034
 O 0.1753 0.1753 0.5966
 O 0.1763 0.3572 0.3825
 O 0.1763 0.8191 0.6175
 O 0.1765 0.3347 0.7477
 O 0.1765 0.8418 0.2523
 O 0.1796 0.0000 0.5980
 O 0.1796 0.1796 0.4020
 O 0.1809 0.3572 0.6175
 O 0.1809 0.8237 0.3825
 O 0.1871 0.3743 0.0000
 O 0.1871 0.8129 0.0000
 O 0.1892 0.0000 0.8037
 O 0.1892 0.1892 0.1963
 O 0.1905 0.5129 0.3104
 O 0.1905 0.6776 0.6896
 O 0.1927 0.5139 0.0859
 O 0.1927 0.6788 0.9141
 O 0.2772 0.1386 0.5000
 O 0.3188 0.1529 0.1231
 O 0.3188 0.1659 0.8769
 O 0.3212 0.5139 0.9141
 O 0.3212 0.8073 0.0859
 O 0.3224 0.5129 0.6896
 O 0.3224 0.8095 0.3104
 O 0.3347 0.1582 0.2523
 O 0.3347 0.1765 0.7477
 O 0.3430 0.4706 0.3094
 O 0.3430 0.8724 0.6906
 O 0.3448 0.4713 0.0849
 O 0.3448 0.8735 0.9151
 O 0.3572 0.1763 0.3825
 O 0.3572 0.1809 0.6175
 O 0.3743 0.1871 0.0000
 O 0.4120 0.5747 0.1975
 O 0.4120 0.8373 0.8025
 O 0.4253 0.5880 0.8025
 O 0.4253 0.8373 0.1975
 O 0.4583 0.0000 0.1209
 O 0.4583 0.4583 0.8791
 O 0.4595 0.0000 0.2741
 O 0.4595 0.4595 0.7259
 O 0.4706 0.1276 0.6906
 O 0.4706 0.3430 0.3094
 O 0.4713 0.1265 0.9151
 O 0.4713 0.3448 0.0849
 O 0.4861 0.6788 0.0859
 O 0.4861 0.8073 0.9141
 O 0.4871 0.6776 0.3104
 O 0.4871 0.8095 0.6896
 O 0.5129 0.1905 0.3104
 O 0.5129 0.3224 0.6896
 O 0.5139 0.1927 0.0859
 O 0.5139 0.3212 0.9141
 O 0.5287 0.6552 0.9151
 O 0.5287 0.8735 0.0849
 O 0.5294 0.6570 0.6906
 O 0.5294 0.8724 0.3094
 O 0.5405 0.0000 0.7259
 O 0.5405 0.5405 0.2741
 O 0.5417 0.0000 0.8791
 O 0.5417 0.5417 0.1209
 O 0.5747 0.1627 0.8025
 O 0.5747 0.4120 0.1975
 O 0.5880 0.1627 0.1975
 O 0.5880 0.4253 0.8025
 O 0.6257 0.8129 0.0000
 O 0.6428 0.8191 0.3825
 O 0.6428 0.8237 0.6175
 O 0.6552 0.1265 0.0849
 O 0.6552 0.5287 0.9151
 O 0.6570 0.1276 0.3094
 O 0.6570 0.5294 0.6906
 O 0.6653 0.8235 0.2523
 O 0.6653 0.8418 0.7477
 O 0.6776 0.1905 0.6896
 O 0.6776 0.4871 0.3104
 O 0.6788 0.1927 0.9141
 O 0.6788 0.4861 0.0859
 O 0.6812 0.8341 0.1231
 O 0.6812 0.8471 0.8769
 O 0.7228 0.8614 0.5000
 O 0.8073 0.3212 0.0859
 O 0.8073 0.4861 0.9141
 O 0.8095 0.3224 0.3104
 O 0.8095 0.4871 0.6896
 O 0.8108 0.0000 0.1963
 O 0.8108 0.8108 0.8037
 O 0.8129 0.1871 0.0000
 O 0.8129 0.6257 0.0000
 O 0.8191 0.1763 0.6175
 O 0.8191 0.6428 0.3825
 O 0.8204 0.0000 0.4020
 O 0.8204 0.8204 0.5980
 O 0.8235 0.1582 0.7477
 O 0.8235 0.6653 0.2523
 O 0.8237 0.1809 0.3825
 O 0.8237 0.6428 0.6175
 O 0.8247 0.0000 0.5966
 O 0.8247 0.8247 0.4034
 O 0.8308 0.0000 0.8057
 O 0.8308 0.8308 0.1943
 O 0.8341 0.1529 0.8769
 O 0.8341 0.6812 0.1231
 O 0.8373 0.4120 0.8025
 O 0.8373 0.4253 0.1975
 O 0.8418 0.1765 0.2523
 O 0.8418 0.6653 0.7477
 O 0.8471 0.1659 0.1231
 O 0.8471 0.6812 0.8769
 O 0.8614 0.1386 0.5000
 O 0.8614 0.7228 0.5000
 O 0.8724 0.3430 0.6906
 O 0.8724 0.5294 0.3094
 O 0.8735 0.3448 0.9151
 O 0.8735 0.5287 0.0849
 Si 0.1211 0.5550 0.2730
 Si 0.1211 0.5661 0.7270
 Si 0.1213 0.5544 0.1220
 Si 0.1213 0.5669 0.8780
 Si 0.1235 0.2470 0.5774
 Si 0.1235 0.8765 0.4226
 Si 0.1235 0.2470 0.4226
 Si 0.1235 0.8765 0.5774
 Si 0.1255 0.2529 0.1914
 Si 0.1255 0.8726 0.8086
 Si 0.1274 0.2529 0.8086
 Si 0.1274 0.8745 0.1914
 Si 0.2006 0.4189 0.9252
 Si 0.2006 0.7818 0.0748
 Si 0.2010 0.4165 0.6876
 Si 0.2010 0.7845 0.3124
 Si 0.2155 0.4165 0.3124
 Si 0.2155 0.7990 0.6876
 Si 0.2182 0.4189 0.0748
 Si 0.2182 0.7994 0.9252
 Si 0.2470 0.1235 0.5774
 Si 0.2470 0.1235 0.4226
 Si 0.2529 0.1255 0.1914
 Si 0.2529 0.1274 0.8086
 Si 0.4165 0.2010 0.6876
 Si 0.4165 0.2155 0.3124
 Si 0.4189 0.2006 0.9252
 Si 0.4189 0.2182 0.0748
 Si 0.4331 0.5544 0.8780
 Si 0.4331 0.8787 0.1220
 Si 0.4339 0.5550 0.7270
 Si 0.4339 0.8789 0.2730
 Si 0.4450 0.5661 0.2730
 Si 0.4450 0.8789 0.7270
 Si 0.4456 0.5669 0.1220
 Si 0.4456 0.8787 0.8780
 Si 0.5544 0.1213 0.1220
 Si 0.5544 0.4331 0.8780
 Si 0.5550 0.1211 0.2730
 Si 0.5550 0.4339 0.7270
 Si 0.5661 0.1211 0.7270
 Si 0.5661 0.4450 0.2730
 Si 0.5669 0.1213 0.8780
 Si 0.5669 0.4456 0.1220
 Si 0.5811 0.7818 0.9252
 Si 0.5811 0.7994 0.0748
 Si 0.5835 0.7845 0.6876
 Si 0.5835 0.7990 0.3124
 Si 0.7471 0.8726 0.1914
 Si 0.7471 0.8745 0.8086
 Si 0.7530 0.8765 0.5774
 Si 0.7530 0.8765 0.4226
 Si 0.7818 0.2006 0.0748
 Si 0.7818 0.5811 0.9252
 Si 0.7845 0.2010 0.3124
 Si 0.7845 0.5835 0.6876
 Si 0.7990 0.2155 0.6876
 Si 0.7990 0.5835 0.3124
 Si 0.7994 0.2182 0.9252
 Si 0.7994 0.5811 0.0748
 Si 0.8726 0.1255 0.8086
 Si 0.8726 0.7471 0.1914
 Si 0.8745 0.1274 0.1914
 Si 0.8745 0.7471 0.8086
 Si 0.8765 0.1235 0.4226
 Si 0.8765 0.7530 0.5774
 Si 0.8765 0.1235 0.5774
 Si 0.8765 0.7530 0.4226
 Si 0.8787 0.4331 0.1220
 Si 0.8787 0.4456 0.8780
 Si 0.8789 0.4339 0.2730
 Si 0.8789 0.4450 0.7270
