
data_image0
_symmetry_space_group_name_H-M    "P 1"
_symmetry_int_tables_number       1

loop_
 _symmetry_equiv_pos_as_xyz
 'x, y, z'

_cell_length_a	11.334418
_cell_length_b	11.334418
_cell_length_c	11.262578
_cell_angle_alpha	90.0
_cell_angle_beta	90.0
_cell_angle_gamma	120.0

loop_
 _atom_site_type_symbol
 _atom_site_fract_x
 _atom_site_fract_y
 _atom_site_fract_z
 O 0.0275 0.7388 0.2128
 O 0.0275 0.7388 0.7872
 O 0.0306 0.2922 0.1640
 O 0.0306 0.2922 0.8360
 O 0.1334 0.7805 0.0000
 O 0.2195 0.3529 0.0000
 O 0.2528 0.7390 0.1881
 O 0.2528 0.7390 0.8119
 O 0.2610 0.5138 0.1881
 O 0.2610 0.5138 0.8119
 O 0.2612 0.2887 0.2128
 O 0.2612 0.2887 0.7872
 O 0.2616 0.9694 0.1640
 O 0.2616 0.9694 0.8360
 O 0.3333 0.6667 0.0000
 O 0.4386 0.1208 0.0000
 O 0.4408 0.3577 0.3877
 O 0.4408 0.3577 0.6123
 O 0.4534 0.2224 0.2093
 O 0.4534 0.2224 0.7907
 O 0.4862 0.7472 0.1881
 O 0.4862 0.7472 0.8119
 O 0.5155 0.4776 0.1786
 O 0.5155 0.4776 0.8214
 O 0.5224 0.0379 0.1786
 O 0.5224 0.0379 0.8214
 O 0.5269 0.2061 0.5000
 O 0.6423 0.0831 0.3877
 O 0.6423 0.0831 0.6123
 O 0.6471 0.8666 0.0000
 O 0.6791 0.4731 0.5000
 O 0.6822 0.5614 0.0000
 O 0.7078 0.7384 0.1640
 O 0.7078 0.7384 0.8360
 O 0.7113 0.9725 0.2128
 O 0.7113 0.9725 0.7872
 O 0.7690 0.5466 0.2093
 O 0.7690 0.5466 0.7907
 O 0.7776 0.2310 0.2093
 O 0.7776 0.2310 0.7907
 O 0.7939 0.3209 0.5000
 O 0.8792 0.3178 0.0000
 O 0.9169 0.5592 0.3877
 O 0.9169 0.5592 0.6123
 O 0.9621 0.4845 0.1786
 O 0.9621 0.4845 0.8214
 Si 0.1688 0.8081 0.1390
 Si 0.1688 0.8081 0.8610
 Si 0.1919 0.3607 0.1390
 Si 0.1919 0.3607 0.8610
 Si 0.3333 0.6667 0.1407
 Si 0.3333 0.6667 0.8593
 Si 0.4177 0.0871 0.1385
 Si 0.4177 0.0871 0.8615
 Si 0.4180 0.3372 0.2474
 Si 0.4180 0.3372 0.7526
 Si 0.5220 0.3476 0.5000
 Si 0.6393 0.8312 0.1390
 Si 0.6393 0.8312 0.8610
 Si 0.6524 0.1744 0.5000
 Si 0.6628 0.0808 0.2474
 Si 0.6628 0.0808 0.7526
 Si 0.6695 0.5823 0.1385
 Si 0.6695 0.5823 0.8615
 Si 0.8256 0.4780 0.5000
 Si 0.9129 0.3305 0.1385
 Si 0.9129 0.3305 0.8615
 Si 0.9192 0.5820 0.2474
 Si 0.9192 0.5820 0.7526
