
data_image0
_symmetry_space_group_name_H-M    "P 1"
_symmetry_int_tables_number       1

loop_
 _symmetry_equiv_pos_as_xyz
 'x, y, z'

_cell_length_a	14.228115
_cell_length_b	14.228115
_cell_length_c	31.055611
_cell_angle_alpha	90.0
_cell_angle_beta	90.0
_cell_angle_gamma	120.0

loop_
 _atom_site_type_symbol
 _atom_site_fract_x
 _atom_site_fract_y
 _atom_site_fract_z
 O 0.0000 0.1463 0.0480
 O 0.0000 0.1463 0.4520
 O 0.0000 0.1614 0.1947
 O 0.0000 0.1614 0.3053
 O 0.0000 0.1961 0.6889
 O 0.0000 0.1961 0.8111
 O 0.0000 0.2016 0.5616
 O 0.0000 0.2016 0.9384
 O 0.0000 0.4816 0.6635
 O 0.0000 0.4816 0.8365
 O 0.0000 0.5184 0.1635
 O 0.0000 0.5184 0.3365
 O 0.0000 0.7984 0.0616
 O 0.0000 0.7984 0.4384
 O 0.0000 0.8039 0.1889
 O 0.0000 0.8039 0.3111
 O 0.0000 0.8386 0.6947
 O 0.0000 0.8386 0.8053
 O 0.0000 0.8537 0.5480
 O 0.0000 0.8537 0.9520
 O 0.1345 0.3331 0.0825
 O 0.1345 0.3331 0.4175
 O 0.1345 0.8014 0.5825
 O 0.1345 0.8014 0.9175
 O 0.1453 0.4938 0.1191
 O 0.1453 0.4938 0.3809
 O 0.1453 0.6515 0.6191
 O 0.1453 0.6515 0.8809
 O 0.1463 0.0000 0.0480
 O 0.1463 0.0000 0.4520
 O 0.1463 0.1463 0.5480
 O 0.1463 0.1463 0.9520
 O 0.1475 0.2955 0.2500
 O 0.1475 0.8520 0.7500
 O 0.1480 0.2955 0.7500
 O 0.1480 0.8525 0.2500
 O 0.1492 0.2984 0.0000
 O 0.1492 0.2984 0.5000
 O 0.1492 0.8508 0.0000
 O 0.1492 0.8508 0.5000
 O 0.1500 0.4704 0.6168
 O 0.1500 0.4704 0.8832
 O 0.1500 0.6796 0.1168
 O 0.1500 0.6796 0.3832
 O 0.1566 0.3508 0.1686
 O 0.1566 0.3508 0.3314
 O 0.1566 0.8058 0.6686
 O 0.1566 0.8058 0.8314
 O 0.1614 0.0000 0.1947
 O 0.1614 0.0000 0.3053
 O 0.1614 0.1614 0.6947
 O 0.1614 0.1614 0.8053
 O 0.1942 0.3508 0.6686
 O 0.1942 0.3508 0.8314
 O 0.1942 0.8434 0.1686
 O 0.1942 0.8434 0.3314
 O 0.1961 0.0000 0.6889
 O 0.1961 0.0000 0.8111
 O 0.1961 0.1961 0.1889
 O 0.1961 0.1961 0.3111
 O 0.1986 0.3331 0.5825
 O 0.1986 0.3331 0.9175
 O 0.1986 0.8655 0.0825
 O 0.1986 0.8655 0.4175
 O 0.2016 0.0000 0.5616
 O 0.2016 0.0000 0.9384
 O 0.2016 0.2016 0.0616
 O 0.2016 0.2016 0.4384
 O 0.2095 0.5875 0.6858
 O 0.2095 0.5875 0.8142
 O 0.2095 0.6220 0.1858
 O 0.2095 0.6220 0.3142
 O 0.2955 0.1475 0.2500
 O 0.2955 0.1480 0.7500
 O 0.2984 0.1492 0.0000
 O 0.2984 0.1492 0.5000
 O 0.3204 0.4704 0.1168
 O 0.3204 0.4704 0.3832
 O 0.3204 0.8500 0.6168
 O 0.3204 0.8500 0.8832
 O 0.3331 0.1345 0.0825
 O 0.3331 0.1345 0.4175
 O 0.3331 0.1986 0.5825
 O 0.3331 0.1986 0.9175
 O 0.3333 0.6667 0.2500
 O 0.3333 0.6667 0.7500
 O 0.3485 0.4938 0.6191
 O 0.3485 0.4938 0.8809
 O 0.3485 0.8547 0.1191
 O 0.3485 0.8547 0.3809
 O 0.3508 0.1566 0.1686
 O 0.3508 0.1566 0.3314
 O 0.3508 0.1942 0.6686
 O 0.3508 0.1942 0.8314
 O 0.3780 0.5875 0.1858
 O 0.3780 0.5875 0.3142
 O 0.3780 0.7905 0.6858
 O 0.3780 0.7905 0.8142
 O 0.4125 0.6220 0.6858
 O 0.4125 0.6220 0.8142
 O 0.4125 0.7905 0.1858
 O 0.4125 0.7905 0.3142
 O 0.4704 0.1500 0.6168
 O 0.4704 0.1500 0.8832
 O 0.4704 0.3204 0.1168
 O 0.4704 0.3204 0.3832
 O 0.4816 0.0000 0.6635
 O 0.4816 0.0000 0.8365
 O 0.4816 0.4816 0.1635
 O 0.4816 0.4816 0.3365
 O 0.4938 0.1453 0.1191
 O 0.4938 0.1453 0.3809
 O 0.4938 0.3485 0.6191
 O 0.4938 0.3485 0.8809
 O 0.5062 0.6515 0.1191
 O 0.5062 0.6515 0.3809
 O 0.5062 0.8547 0.6191
 O 0.5062 0.8547 0.8809
 O 0.5184 0.0000 0.1635
 O 0.5184 0.0000 0.3365
 O 0.5184 0.5184 0.6635
 O 0.5184 0.5184 0.8365
 O 0.5296 0.6796 0.6168
 O 0.5296 0.6796 0.8832
 O 0.5296 0.8500 0.1168
 O 0.5296 0.8500 0.3832
 O 0.5875 0.2095 0.6858
 O 0.5875 0.2095 0.8142
 O 0.5875 0.3780 0.1858
 O 0.5875 0.3780 0.3142
 O 0.6220 0.2095 0.1858
 O 0.6220 0.2095 0.3142
 O 0.6220 0.4125 0.6858
 O 0.6220 0.4125 0.8142
 O 0.6492 0.8058 0.1686
 O 0.6492 0.8058 0.3314
 O 0.6492 0.8434 0.6686
 O 0.6492 0.8434 0.8314
 O 0.6515 0.1453 0.6191
 O 0.6515 0.1453 0.8809
 O 0.6515 0.5062 0.1191
 O 0.6515 0.5062 0.3809
 O 0.6667 0.3333 0.2500
 O 0.6667 0.3333 0.7500
 O 0.6669 0.8014 0.0825
 O 0.6669 0.8014 0.4175
 O 0.6669 0.8655 0.5825
 O 0.6669 0.8655 0.9175
 O 0.6796 0.1500 0.1168
 O 0.6796 0.1500 0.3832
 O 0.6796 0.5296 0.6168
 O 0.6796 0.5296 0.8832
 O 0.7016 0.8508 0.0000
 O 0.7016 0.8508 0.5000
 O 0.7045 0.8520 0.2500
 O 0.7045 0.8525 0.7500
 O 0.7905 0.3780 0.6858
 O 0.7905 0.3780 0.8142
 O 0.7905 0.4125 0.1858
 O 0.7905 0.4125 0.3142
 O 0.7984 0.0000 0.0616
 O 0.7984 0.0000 0.4384
 O 0.7984 0.7984 0.5616
 O 0.7984 0.7984 0.9384
 O 0.8014 0.1345 0.5825
 O 0.8014 0.1345 0.9175
 O 0.8014 0.6669 0.0825
 O 0.8014 0.6669 0.4175
 O 0.8039 0.0000 0.1889
 O 0.8039 0.0000 0.3111
 O 0.8039 0.8039 0.6889
 O 0.8039 0.8039 0.8111
 O 0.8058 0.1566 0.6686
 O 0.8058 0.1566 0.8314
 O 0.8058 0.6492 0.1686
 O 0.8058 0.6492 0.3314
 O 0.8386 0.0000 0.6947
 O 0.8386 0.0000 0.8053
 O 0.8386 0.8386 0.1947
 O 0.8386 0.8386 0.3053
 O 0.8434 0.1942 0.1686
 O 0.8434 0.1942 0.3314
 O 0.8434 0.6492 0.6686
 O 0.8434 0.6492 0.8314
 O 0.8500 0.3204 0.6168
 O 0.8500 0.3204 0.8832
 O 0.8500 0.5296 0.1168
 O 0.8500 0.5296 0.3832
 O 0.8508 0.1492 0.0000
 O 0.8508 0.1492 0.5000
 O 0.8508 0.7016 0.0000
 O 0.8508 0.7016 0.5000
 O 0.8520 0.1475 0.7500
 O 0.8520 0.7045 0.2500
 O 0.8525 0.1480 0.2500
 O 0.8525 0.7045 0.7500
 O 0.8537 0.0000 0.5480
 O 0.8537 0.0000 0.9520
 O 0.8537 0.8537 0.0480
 O 0.8537 0.8537 0.4520
 O 0.8547 0.3485 0.1191
 O 0.8547 0.3485 0.3809
 O 0.8547 0.5062 0.6191
 O 0.8547 0.5062 0.8809
 O 0.8655 0.1986 0.0825
 O 0.8655 0.1986 0.4175
 O 0.8655 0.6669 0.5825
 O 0.8655 0.6669 0.9175
 Si 0.1226 0.2459 0.0479
 Si 0.1226 0.2459 0.4521
 Si 0.1226 0.8767 0.5479
 Si 0.1226 0.8767 0.9521
 Si 0.1233 0.2459 0.5479
 Si 0.1233 0.2459 0.9521
 Si 0.1233 0.8774 0.0479
 Si 0.1233 0.8774 0.4521
 Si 0.1243 0.5477 0.6467
 Si 0.1243 0.5477 0.8533
 Si 0.1243 0.5766 0.1467
 Si 0.1243 0.5766 0.3533
 Si 0.1253 0.2515 0.2008
 Si 0.1253 0.2515 0.2992
 Si 0.1253 0.8738 0.7008
 Si 0.1253 0.8738 0.7992
 Si 0.1262 0.2515 0.7008
 Si 0.1262 0.2515 0.7992
 Si 0.1262 0.8747 0.2008
 Si 0.1262 0.8747 0.2992
 Si 0.1903 0.4107 0.1224
 Si 0.1903 0.4107 0.3776
 Si 0.1903 0.7796 0.6224
 Si 0.1903 0.7796 0.8776
 Si 0.2204 0.4107 0.6224
 Si 0.2204 0.4107 0.8776
 Si 0.2204 0.8097 0.1224
 Si 0.2204 0.8097 0.3776
 Si 0.2459 0.1226 0.0479
 Si 0.2459 0.1226 0.4521
 Si 0.2459 0.1233 0.5479
 Si 0.2459 0.1233 0.9521
 Si 0.2515 0.1253 0.2008
 Si 0.2515 0.1253 0.2992
 Si 0.2515 0.1262 0.7008
 Si 0.2515 0.1262 0.7992
 Si 0.3333 0.6667 0.2003
 Si 0.3333 0.6667 0.2997
 Si 0.3333 0.6667 0.7003
 Si 0.3333 0.6667 0.7997
 Si 0.4107 0.1903 0.1224
 Si 0.4107 0.1903 0.3776
 Si 0.4107 0.2204 0.6224
 Si 0.4107 0.2204 0.8776
 Si 0.4234 0.5477 0.1467
 Si 0.4234 0.5477 0.3533
 Si 0.4234 0.8757 0.6467
 Si 0.4234 0.8757 0.8533
 Si 0.4523 0.5766 0.6467
 Si 0.4523 0.5766 0.8533
 Si 0.4523 0.8757 0.1467
 Si 0.4523 0.8757 0.3533
 Si 0.5477 0.1243 0.6467
 Si 0.5477 0.1243 0.8533
 Si 0.5477 0.4234 0.1467
 Si 0.5477 0.4234 0.3533
 Si 0.5766 0.1243 0.1467
 Si 0.5766 0.1243 0.3533
 Si 0.5766 0.4523 0.6467
 Si 0.5766 0.4523 0.8533
 Si 0.5893 0.7796 0.1224
 Si 0.5893 0.7796 0.3776
 Si 0.5893 0.8097 0.6224
 Si 0.5893 0.8097 0.8776
 Si 0.6667 0.3333 0.2003
 Si 0.6667 0.3333 0.2997
 Si 0.6667 0.3333 0.7003
 Si 0.6667 0.3333 0.7997
 Si 0.7485 0.8738 0.2008
 Si 0.7485 0.8738 0.2992
 Si 0.7485 0.8747 0.7008
 Si 0.7485 0.8747 0.7992
 Si 0.7541 0.8767 0.0479
 Si 0.7541 0.8767 0.4521
 Si 0.7541 0.8774 0.5479
 Si 0.7541 0.8774 0.9521
 Si 0.7796 0.1903 0.6224
 Si 0.7796 0.1903 0.8776
 Si 0.7796 0.5893 0.1224
 Si 0.7796 0.5893 0.3776
 Si 0.8097 0.2204 0.1224
 Si 0.8097 0.2204 0.3776
 Si 0.8097 0.5893 0.6224
 Si 0.8097 0.5893 0.8776
 Si 0.8738 0.1253 0.7008
 Si 0.8738 0.1253 0.7992
 Si 0.8738 0.7485 0.2008
 Si 0.8738 0.7485 0.2992
 Si 0.8747 0.1262 0.2008
 Si 0.8747 0.1262 0.2992
 Si 0.8747 0.7485 0.7008
 Si 0.8747 0.7485 0.7992
 Si 0.8757 0.4234 0.6467
 Si 0.8757 0.4234 0.8533
 Si 0.8757 0.4523 0.1467
 Si 0.8757 0.4523 0.3533
 Si 0.8767 0.1226 0.5479
 Si 0.8767 0.1226 0.9521
 Si 0.8767 0.7541 0.0479
 Si 0.8767 0.7541 0.4521
 Si 0.8774 0.1233 0.0479
 Si 0.8774 0.1233 0.4521
 Si 0.8774 0.7541 0.5479
 Si 0.8774 0.7541 0.9521
